%nprocshared=48
%chk=QST2_YIrMeH_sigma_YIrMeH.chk
%mem=16GB
# wb97xd def2TZVPP SCRF=(solvent=dichloromethane) opt=qst2 freq

ts_xyz/YIrMeH_sigma.xyz

0 1
C          1.92342        1.21076       -0.10747
C          1.92263       -1.21194       -0.10752
C          3.30496        1.21128        0.00307
C          3.30417       -1.21336        0.00302
C          3.99194       -0.00127        0.07930
H          3.85960        2.14334        0.01904
H          3.85821       -2.14578        0.01896
C          1.04435        2.40174       -0.36928
H          1.01676        2.58324       -1.44502
H          1.39335        3.32262        0.10764
C          1.04279       -2.40234       -0.36935
H          1.01504       -2.58377       -1.44510
H          1.39122       -3.32347        0.10750
N         -0.37408        2.12476        0.05214
N         -0.37546       -2.12447        0.05215
C         -3.27324        0.00069        0.02580
H         -2.66900        0.00036        0.94786
H         -3.88983        0.89566        0.01013
H         -3.88986       -0.89424        0.00964
C         -1.28163        2.95171       -0.75863
H         -2.30260        2.80745       -0.41133
H         -1.02517        4.01348       -0.67349
H         -1.21547        2.64454       -1.79943
C         -0.52089        2.52477        1.46700
H         -0.35195        3.60207        1.57529
H         -1.52277        2.28390        1.81454
H          0.20164        1.98462        2.07324
C         -1.28359       -2.95084       -0.75857
H         -1.02780       -4.01278       -0.67346
H         -2.30445       -2.80593       -0.41120
H         -1.21729       -2.64370       -1.79937
C         -0.52243       -2.52440        1.46701
H         -1.52415       -2.28293        1.81461
H         -0.35416       -3.60181        1.57529
H          0.20046       -1.98471        2.07322
H         -2.63318        0.00092       -0.88420
Ir        -0.67651        0.00023       -0.08143
H          5.06989       -0.00162        0.17627
C          1.22410       -0.00036       -0.11451

ts_xyz/YIrMeH.xyz

0 1
C          1.90229        1.21276       -0.09318
C          1.90283       -1.21192       -0.09324
C          3.26536        1.21540        0.16429
C          3.26590       -1.21398        0.16423
C          3.93836        0.00086        0.30507
H          3.81510        2.14611        0.24993
H          3.81605       -2.14445        0.24982
C          1.02483        2.39527       -0.40477
H          1.02106        2.54997       -1.48522
H          1.35793        3.32724        0.05960
C          1.02588       -2.39479       -0.40487
H          1.02213       -2.54943       -1.48533
H          1.35943       -3.32664        0.05943
N         -0.40549        2.12605       -0.00964
N         -0.40451       -2.12620       -0.00963
C         -2.68858       -0.00073        0.81123
H         -2.48027       -0.00074        1.89437
H         -3.31577        0.88176        0.63475
H         -3.31529       -0.88354        0.63464
C         -1.29999        2.95809       -0.82984
H         -2.32536        2.79981       -0.50511
H         -1.04683        4.01810       -0.72520
H         -1.20838        2.66514       -1.87265
C         -0.57235        2.51188        1.40655
H         -0.36988        3.57910        1.53466
H         -1.58872        2.29560        1.72357
H          0.12341        1.94205        2.01965
C         -1.29872       -2.95863       -0.82975
H         -1.04510       -4.01852       -0.72514
H         -2.32413       -2.80080       -0.50493
H         -1.20734       -2.66562       -1.87257
C         -0.57107       -2.51200        1.40660
H         -1.58750       -2.29606        1.72367
H         -0.36820       -3.57912        1.53477
H          0.12450       -1.94186        2.01961
H         -0.27867       -0.00014       -1.64992
Ir        -0.73033       -0.00017       -0.16149
H          5.00026        0.00108        0.51386
C          1.22641        0.00027       -0.17845

