%nprocshared=8
%chk=YIr.chk
%mem=1GB
# wb97xd def2TZVPP SCRF=(solvent=dichloromethane) opt freq

YIr

0 1
C         -1.72725       -0.11031        1.22785
C         -1.72725       -0.11031       -1.22785
C         -3.12093       -0.01146        1.22334
C         -3.12093       -0.01146       -1.22334
C         -3.81315        0.07235        0.00000
H         -3.68280       -0.01863        2.16614
H         -3.68280       -0.01863       -2.16614
C         -0.82677       -0.43100        2.39514
H         -0.74499       -1.52951        2.50483
H         -1.16119       -0.01443        3.37027
C         -0.82677       -0.43100       -2.39514
H         -0.74499       -1.52951       -2.50483
H         -1.16119       -0.01443       -3.37027
N          0.57248        0.05845        2.09632
N          0.57248        0.05845       -2.09632
C          1.53247       -0.68397        2.93933
H          2.54249       -0.27704        2.76678
H          1.27437       -0.57494        4.01614
H          1.51253       -1.74573        2.65160
C          0.63241        1.49839        2.46434
H          0.47149        1.61143        3.55964
H          1.61566        1.90599        2.18585
H         -0.15105        2.03585        1.90965
C          1.53247       -0.68397       -2.93933
H          1.27437       -0.57494       -4.01614
H          2.54249       -0.27704       -2.76678
H          1.51253       -1.74573       -2.65160
C          0.63241        1.49839       -2.46434
H          1.61566        1.90599       -2.18585
H          0.47149        1.61143       -3.55964
H         -0.15105        2.03585       -1.90965
Ir         0.84028       -0.08824        0.00000
C         -1.02779       -0.09155        0.00000
H         -4.90262        0.16558        0.00000

