%nprocshared=8
%chk=YIrMeH.chk
%mem=1GB
# wb97xd def2TZVPP SCRF=(solvent=dichloromethane) opt freq

YIrMeH

0 1
C         -1.85937       -1.26493       -0.08977
C         -1.90855        1.18934       -0.09020
C         -3.22932       -1.29129        0.18933
C         -3.27845        1.16099        0.18892
C         -3.92751       -0.07861        0.35230
H         -3.77069       -2.24284        0.26442
H         -3.85745        2.09015        0.26375
C         -0.94586       -2.40065       -0.48666
H         -0.89734       -2.45603       -1.59249
H         -1.24474       -3.39936       -0.10428
C         -1.04126        2.36062       -0.48728
H         -0.99459        2.41748       -1.59311
H         -1.38010        3.34667       -0.10535
N          0.46914       -2.09962       -0.03246
N          0.38444        2.11667       -0.03241
C          2.51529        0.05046        1.06074
H          2.19713        0.04443        2.12886
H          3.18851       -0.82706        0.95156
H          3.15317        0.95394        0.95111
C          1.42501       -2.90459       -0.82099
H          2.44085       -2.70912       -0.44393
H          1.19242       -3.98724       -0.72659
H          1.36087       -2.59796       -1.87611
C          0.57249       -2.49539        1.39613
H          0.36351       -3.58044        1.49808
H          1.58290       -2.27570        1.76614
H         -0.16920       -1.92037        1.97351
C          1.30758        2.95961       -0.82027
H          1.03153        4.03199       -0.72576
H          2.33026        2.80515       -0.44268
H          1.25642        2.65092       -1.87549
C          0.47103        2.51606        1.39626
H          1.48930        2.33716        1.76662
H          0.21852        3.59181        1.49825
H         -0.24716        1.91157        1.97326
H          0.16909        0.00339       -1.66785
Ir         0.72991        0.01464       -0.17886
H         -4.99658       -0.09999        0.58121
C         -1.20020       -0.02411       -0.16128

