%nprocshared=8
%chk=YIrMeH_sigma.chk
%mem=1GB
# wb97xd def2TZVPP SCRF=(solvent=dichloromethane) opt freq

YIrMeH_sigma

0 1
C          1.92769        1.22544       -0.10931
C          1.92756       -1.22562       -0.10930
C          3.31982        1.22358        0.00865
C          3.31969       -1.22392        0.00866
C          4.01098       -0.00020        0.09885
H          3.88273        2.16587        0.01445
H          3.88250       -2.16627        0.01447
C          1.02902        2.39554       -0.42665
H          0.95482        2.51337       -1.52501
H          1.35789        3.36901       -0.00160
C          1.02877       -2.39564       -0.42663
H          0.95457       -2.51347       -1.52500
H          1.35754       -3.36914       -0.00158
N         -0.37781        2.09628        0.04779
N         -0.37803       -2.09623        0.04779
C         -3.45419        0.00011        0.06033
H         -2.80973        0.00018        0.96544
H         -4.08376        0.90131        0.06707
H         -4.08370       -0.90112        0.06717
C         -1.33054        2.93225       -0.71182
H         -2.34301        2.77062       -0.30560
H         -1.06883        4.00952       -0.61953
H         -1.30802        2.62694       -1.76893
C         -0.46249        2.47126        1.48355
H         -0.30797        3.56760        1.59621
H         -1.45444        2.19251        1.87320
H          0.31209        1.92052        2.03771
C         -1.33084       -2.93210       -0.71184
H         -1.06922       -4.00939       -0.61957
H         -2.34329       -2.77040       -0.30562
H         -1.30830       -2.62677       -1.76894
C         -0.46278       -2.47121        1.48354
H         -1.45470       -2.19236        1.87318
H         -0.30838       -3.56757        1.59621
H          0.31186       -1.92056        2.03772
H         -2.83639        0.00007       -0.86828
Ir        -0.65605        0.00004       -0.09026
H          5.09921       -0.00026        0.20702
C          1.22279       -0.00006       -0.10788

