%nprocshared=8
%chk=YRhMeH_sigma.chk
%mem=1GB
# wb97xd def2TZVPP SCRF=(solvent=dichloromethane) opt freq

YRhMeH_sigma

0 1
C          1.78576        1.22246       -0.13017
C          1.78570       -1.22254       -0.13017
C          3.17733        1.22213        0.00962
C          3.17727       -1.22228        0.00962
C          3.86793       -0.00009        0.10486
H          3.73731        2.16595        0.03176
H          3.73721       -2.16612        0.03175
C          0.90033        2.40671       -0.42998
H          0.83762        2.54961       -1.52621
H          1.24006        3.36896        0.01627
C          0.90022       -2.40674       -0.42999
H          0.83750       -2.54965       -1.52621
H          1.23990       -3.36902        0.01626
N         -0.50143        2.10654        0.03052
N         -0.50153       -2.10651        0.03052
C         -3.54183        0.00005        0.03019
H         -2.88545        0.00009        0.92635
H         -4.17249        0.90016        0.04787
H         -4.17245       -0.90009        0.04791
C         -1.45362        2.95991       -0.70261
H         -2.46823        2.78271       -0.30817
H         -1.20077        4.03691       -0.57458
H         -1.42713        2.69491       -1.77080
C         -0.59184        2.42658        1.47463
H         -0.43506        3.51860        1.63328
H         -1.58740        2.14003        1.85090
H          0.17760        1.85479        2.01478
C         -1.45376       -2.95983       -0.70260
H         -1.20097       -4.03685       -0.57457
H         -2.46836       -2.78258       -0.30816
H         -1.42726       -2.69485       -1.77080
C         -0.59195       -2.42654        1.47463
H         -1.58750       -2.13995        1.85090
H         -0.43522       -3.51858        1.63328
H          0.17752       -1.85479        2.01478
H         -2.94102        0.00005       -0.90775
H          4.95462       -0.00011        0.22932
C          1.08013       -0.00002       -0.14776
Rh        -0.79465        0.00002       -0.13527

