%nprocshared=12
%mem=128MW
%chk=Me-NCNPtPh.chk
# opt freq gen scrf=(iefpcm,solvent=thf) m06 EmpiricalDispersion=GD3 Pseudo=Read

M06 Me-(NCN)PtPh; Custom Lanl2tz(f)+6-311g(d,p) basis set

1 1
 Pt                 0.00031000   -0.02568300   -0.11740600
 C                  0.21491900   -2.25476900   -0.86629500
 C                 -0.96354700   -2.54831300   -0.10883700
 C                  1.45034000   -2.30950500   -0.14453900
 C                 -0.87091900   -3.21204800    1.12518500
 C                  1.53061800   -2.97109300    1.08826900
 C                  0.37950800   -3.50850800    1.68245100
 H                 -1.78407600   -3.47407600    1.65551700
 H                  2.49233600   -3.04820200    1.59011800
 H                  0.44916100   -4.06485800    2.61081000
 N                  2.17391300    0.00553300   -0.17979000
 N                 -2.13780800   -0.41749600   -0.11337700
 C                  0.19343900   -2.06794500   -2.37646700
 H                 -0.77217100   -2.36534700   -2.79431300
 H                  0.94922600   -2.71882800   -2.83201800
 H                  0.39119400   -1.04092200   -2.70824600
 C                 -2.25106200   -1.88613200   -0.53077300
 H                 -2.39102400   -1.90803600   -1.61503200
 H                 -3.13270900   -2.33966000   -0.06450600
 C                  2.56247200   -1.40802000   -0.62111900
 H                  2.64629900   -1.39453600   -1.71272200
 H                  3.53934100   -1.68266400   -0.21187600
 C                  2.64110100    1.03104900   -1.19184800
 C                  4.14650700    1.10834400   -1.43888000
 H                  2.25452500    1.99889200   -0.85621300
 H                  2.11660900    0.78587200   -2.12526700
 H                  4.32360000    1.71760600   -2.33084600
 H                  4.67704200    1.58751000   -0.61131900
 H                  4.59434000    0.12461700   -1.62150300
 C                  2.62038200    0.32933900    1.23883100
 C                  4.04129500   -0.06050600    1.64936500
 H                  1.90934000   -0.16112900    1.91603400
 H                  2.46217700    1.40904200    1.34732000
 H                  4.24762100    0.39736700    2.62243100
 H                  4.15972000   -1.14166100    1.78001000
 H                  4.80906700    0.28672500    0.95456700
 C                 -2.58082600   -0.20303800    1.32043900
 C                 -4.05926200   -0.41498500    1.64455400
 H                 -2.28822400    0.82239100    1.57341200
 H                 -1.96037800   -0.87299400    1.92978600
 H                 -4.17458600   -0.41252700    2.73340000
 H                 -4.68656300    0.39072900    1.25335700
 H                 -4.45222000   -1.37202500    1.28085500
 C                 -2.83381600    0.49539000   -1.10471900
 C                 -4.23115700    0.08582300   -1.57275800
 H                 -2.16708900    0.55516400   -1.97533300
 H                 -2.84795700    1.49112700   -0.64684100
 H                 -4.56755600    0.81990600   -2.31246600
 H                 -4.24019300   -0.89090000   -2.06838700
 H                 -4.97164600    0.06859800   -0.77128300
 C                 -0.18839000    1.96440300    0.16871900
 C                 -0.29622500    2.85614800   -0.91731300
 C                 -0.21866000    2.48109300    1.48058800
 C                 -0.44093100    4.23488000   -0.69388700
 H                 -0.26908000    2.48017900   -1.94016700
 C                 -0.36300200    3.86135900    1.69930200
 H                 -0.12758200    1.81212700    2.33664700
 C                 -0.47701500    4.74120700    0.61390700
 H                 -0.52481400    4.91052300   -1.54044600
 H                 -0.38567600    4.24470200    2.71554600
 H                 -0.58954700    5.80727400    0.78372000

Pt     0
S    1   1.00
      2.5470000              1.0000000
S    1   1.00
      1.6140000              1.0000000
S    1   1.00
      0.5167000              1.0000000
S    1   1.00
      0.2651000              1.0000000
S    1   1.00
      0.0580000              1.0000000
P    1   1.00
      2.9110000              1.0000000
P    1   1.00
      1.8360000              1.0000000
P    1   1.00
      0.5982000              1.0000000
P    1   1.00
      0.0996000              1.0000000
P    1   1.00
      0.0290000              1.0000000
D    1   1.00
      1.2430000              1.0000000
D    1   1.00
      0.4271000              1.0000000
D    1   1.00
      0.1370000              1.0000000
F    1   1.00
      0.9930000              1.0000000
****
C H N 0
6-311G(2d,p)
****

Pt     0
Pt-ECP     4     60
g potential
  5
1    728.9394056             -0.1619268
2    320.6567800          -1320.2873852
2     52.8680174           -298.3178135
2     12.0280128            -87.5837065
2      3.5238913             -8.1493274
s-g potential
  6
0    409.4437358              2.7334218
1    274.5419231             59.7024329
2    127.5658570            891.4589550
2     32.9036631            368.4467656
2      5.0593880            238.0263090
2      4.1506556           -107.0556454
p-g potential
  4
0    466.1728892              1.8878568
1    120.7888259             76.0138629
2     36.4118791            343.5511116
2      5.6985408            119.4911786
d-g potential
  5
0    249.5650763              2.9343678
1    126.6678585             59.3306571
2     63.1430586            452.4445194
2     17.9059470            210.4769479
2      4.2239373             58.6254112
f-g potential
  5
0    121.8158799              3.9534253
1     60.8757030             53.8555182
2     31.4767147            247.4305133
2      9.8811751            127.8187976
2      2.7319874             15.3772046


