%nprocshared=12
%mem=128MW
%chk=NCNPtPhMe.chk
# opt freq gen scrf=(iefpcm,solvent=thf) m06 EmpiricalDispersion=GD3 Pseudo=Read

M06 (NCN)PtPhMe; Custom Lanl2tz(f)+6-311g(d,p) basis set

1 1
 Pt                 0.06117100   -0.02775500   -0.22155300
 C                 -1.92923600    0.26011100   -0.20442800
 C                 -2.40444300    1.57147600   -0.14587500
 C                 -2.76438300   -0.85797300   -0.20321900
 C                 -3.78439400    1.77643900   -0.00400100
 C                 -4.14666500   -0.65993300   -0.06034600
 C                 -4.63754600    0.65572700    0.05351500
 H                 -4.20714700    2.77669100    0.05262900
 H                 -4.84156400   -1.49648500   -0.04784100
 H                 -5.70555900    0.81155800    0.16928900
 N                 -0.58124600   -2.06969000   -0.03806100
 N                  0.03004000    2.10588500    0.09264500
 C                  0.07760400   -0.01577300   -2.28813400
 H                  0.29547700    1.01100400   -2.59726300
 H                 -0.91034000   -0.32821000   -2.63649200
 H                  0.87163800   -0.70282300   -2.59077900
 C                 -1.33780700    2.62053300   -0.36380200
 H                 -1.24690900    2.81940700   -1.44058800
 H                 -1.54696400    3.57934900    0.12831800
 C                 -2.04503200   -2.15617200   -0.48040800
 H                 -2.01585300   -2.33789300   -1.56415600
 H                 -2.51831400   -3.03407900   -0.02700300
 C                  0.27739500   -3.04993700   -0.80884900
 C                 -0.04453400   -4.52203700   -0.56895700
 H                  1.31691500   -2.82501800   -0.54519300
 H                  0.14713000   -2.80539800   -1.86988800
 H                  0.58085000   -5.12795500   -1.23168000
 H                  0.17859300   -4.83419200    0.45642000
 H                 -1.08880600   -4.76571900   -0.79409500
 C                 -0.41001100   -2.23578100    1.47155600
 C                 -1.42050100   -3.12914400    2.18937100
 H                 -0.47499600   -1.23232900    1.92930400
 H                  0.61643300   -2.58854900    1.62094100
 H                 -1.11525800   -3.21626400    3.23686800
 H                 -2.42747800   -2.69885500    2.17813500
 H                 -1.46237400   -4.13939100    1.77183100
 C                  0.13396000    2.14073900    1.61340200
 C                  0.23416000    3.51989100    2.26357600
 H                  1.02488400    1.55329900    1.87536400
 H                 -0.75571400    1.62227900    1.99478700
 H                  0.18749600    3.38870100    3.34917400
 H                  1.18193100    4.01629900    2.03680300
 H                 -0.59294600    4.18041400    1.98200600
 C                  1.18232800    2.83673300   -0.57335100
 C                  1.00783200    4.33763500   -0.80895400
 H                  1.35722000    2.34700700   -1.53717200
 H                  2.06727800    2.62889200    0.03860800
 H                  1.94038900    4.71836200   -1.23811400
 H                  0.21338600    4.55891300   -1.52858500
 H                  0.81336400    4.90520400    0.10350600
 C                  2.16703000   -0.30496300   -0.06872400
 C                  3.10780300   -0.18159500   -1.11427700
 C                  2.68402300   -0.59579100    1.21853800
 C                  4.48569300   -0.34129600   -0.89418400
 H                  2.78162900    0.05237300   -2.12903700
 C                  4.06089300   -0.75240500    1.45106500
 H                  2.00980700   -0.70252200    2.07420400
 C                  4.96855000   -0.62703700    0.39081800
 H                  5.18174900   -0.23926000   -1.72250500
 H                  4.42126000   -0.97142700    2.45276200
 H                  6.03355800   -0.74855400    0.56249100

Pt     0
S    1   1.00
      2.5470000              1.0000000
S    1   1.00
      1.6140000              1.0000000
S    1   1.00
      0.5167000              1.0000000
S    1   1.00
      0.2651000              1.0000000
S    1   1.00
      0.0580000              1.0000000
P    1   1.00
      2.9110000              1.0000000
P    1   1.00
      1.8360000              1.0000000
P    1   1.00
      0.5982000              1.0000000
P    1   1.00
      0.0996000              1.0000000
P    1   1.00
      0.0290000              1.0000000
D    1   1.00
      1.2430000              1.0000000
D    1   1.00
      0.4271000              1.0000000
D    1   1.00
      0.1370000              1.0000000
F    1   1.00
      0.9930000              1.0000000
****
C H N 0
6-311G(2d,p)
****

Pt     0
Pt-ECP     4     60
g potential
  5
1    728.9394056             -0.1619268
2    320.6567800          -1320.2873852
2     52.8680174           -298.3178135
2     12.0280128            -87.5837065
2      3.5238913             -8.1493274
s-g potential
  6
0    409.4437358              2.7334218
1    274.5419231             59.7024329
2    127.5658570            891.4589550
2     32.9036631            368.4467656
2      5.0593880            238.0263090
2      4.1506556           -107.0556454
p-g potential
  4
0    466.1728892              1.8878568
1    120.7888259             76.0138629
2     36.4118791            343.5511116
2      5.6985408            119.4911786
d-g potential
  5
0    249.5650763              2.9343678
1    126.6678585             59.3306571
2     63.1430586            452.4445194
2     17.9059470            210.4769479
2      4.2239373             58.6254112
f-g potential
  5
0    121.8158799              3.9534253
1     60.8757030             53.8555182
2     31.4767147            247.4305133
2      9.8811751            127.8187976
2      2.7319874             15.3772046


