%nprocshared=12
%mem=32MW
%chk=lanl2tz_thf_m06_opt_NCNPt.chk
# opt freq gen scrf=(iefpcm,solvent=thf) m06 EmpiricalDispersion=GD3 Pseudo=Read

M06 (NCN)Pt; Custom Lanl2tz(f)+6-311g(d,p) basis set

1 1
 Pt                 0.00000000   -0.66579400   -0.11879700
 C                  0.00000000    1.26380000   -0.17324600
 C                  1.23682200    1.90788400   -0.18838400
 C                 -1.23682200    1.90788400   -0.18838400
 C                  1.22862900    3.30863700   -0.11655600
 C                 -1.22862800    3.30863700   -0.11655600
 C                  0.00000000    3.99237500   -0.05751600
 H                  2.16019000    3.86879400   -0.12080000
 H                 -2.16018900    3.86879400   -0.12079900
 H                  0.00000000    5.07531900    0.00826800
 N                 -2.12427200   -0.41086500    0.00626000
 N                  2.12427200   -0.41086500    0.00626000
 C                  2.42304400    1.01344800   -0.44621200
 H                  2.59329500    0.97174600   -1.52986900
 H                  3.34926300    1.37016300    0.02094200
 C                 -2.42304400    1.01344900   -0.44621200
 H                 -2.59329500    0.97174600   -1.52986900
 H                 -3.34926200    1.37016400    0.02094300
 C                 -2.81402600   -1.44194000   -0.86798500
 C                 -4.27964600   -1.20158600   -1.23982300
 H                 -2.70321700   -2.40243700   -0.34620800
 H                 -2.22242900   -1.49422900   -1.79096400
 H                 -4.60073400   -2.02112500   -1.89114100
 H                 -4.95149000   -1.18269400   -0.37986700
 H                 -4.41746700   -0.27512800   -1.80591800
 C                 -2.42987800   -0.56687500    1.48989100
 C                 -3.89977700   -0.57359200    1.90407300
 H                 -1.89838400    0.25477900    1.98500200
 H                 -1.95531000   -1.50198800    1.81355300
 H                 -3.94798600   -0.51025300    2.99579600
 H                 -4.46085500    0.27935400    1.50643100
 H                 -4.40685000   -1.49700200    1.61042300
 C                  2.42987800   -0.56687500    1.48989100
 C                  3.89977700   -0.57359100    1.90407300
 H                  1.95531000   -1.50198800    1.81355300
 H                  1.89838400    0.25477900    1.98500200
 H                  3.94798500   -0.51025400    2.99579600
 H                  4.40685100   -1.49700000    1.61042200
 H                  4.46085400    0.27935600    1.50643200
 C                  2.81402600   -1.44194000   -0.86798500
 C                  4.27964600   -1.20158600   -1.23982300
 H                  2.22242900   -1.49422900   -1.79096400
 H                  2.70321700   -2.40243700   -0.34620800
 H                  4.60073400   -2.02112500   -1.89114100
 H                  4.41746700   -0.27512900   -1.80591800
 H                  4.95149000   -1.18269500   -0.37986700

Pt     0
S    1   1.00
      2.5470000              1.0000000
S    1   1.00
      1.6140000              1.0000000
S    1   1.00
      0.5167000              1.0000000
S    1   1.00
      0.2651000              1.0000000
S    1   1.00
      0.0580000              1.0000000
P    1   1.00
      2.9110000              1.0000000
P    1   1.00
      1.8360000              1.0000000
P    1   1.00
      0.5982000              1.0000000
P    1   1.00
      0.0996000              1.0000000
P    1   1.00
      0.0290000              1.0000000
D    1   1.00
      1.2430000              1.0000000
D    1   1.00
      0.4271000              1.0000000
D    1   1.00
      0.1370000              1.0000000
F    1   1.00
      0.9930000              1.0000000
****
C H N 0
6-311G(2d,p)
****

Pt     0
Pt-ECP     4     60
g potential
  5
1    728.9394056             -0.1619268
2    320.6567800          -1320.2873852
2     52.8680174           -298.3178135
2     12.0280128            -87.5837065
2      3.5238913             -8.1493274
s-g potential
  6
0    409.4437358              2.7334218
1    274.5419231             59.7024329
2    127.5658570            891.4589550
2     32.9036631            368.4467656
2      5.0593880            238.0263090
2      4.1506556           -107.0556454
p-g potential
  4
0    466.1728892              1.8878568
1    120.7888259             76.0138629
2     36.4118791            343.5511116
2      5.6985408            119.4911786
d-g potential
  5
0    249.5650763              2.9343678
1    126.6678585             59.3306571
2     63.1430586            452.4445194
2     17.9059470            210.4769479
2      4.2239373             58.6254112
f-g potential
  5
0    121.8158799              3.9534253
1     60.8757030             53.8555182
2     31.4767147            247.4305133
2      9.8811751            127.8187976
2      2.7319874             15.3772046


