%nprocshared=12
%mem=32MW
%chk=PhMe.chk
# opt freq 6-311G(2d,p) scrf=(iefpcm,solvent=thf) m06 EmpiricalDispersion=GD3 

M06 PhMe; 6-311g(d,p) basis set

0 1
 C                 -0.91724700    0.00360600   -0.00840300
 C                 -0.19584900    1.20982600   -0.00689700
 C                  1.20662700    1.20977700    0.00158500
 C                  1.91031100   -0.00270600    0.00637000
 C                  1.20062800   -1.21307500    0.00157800
 C                 -0.20030100   -1.20703500   -0.00677000
 H                 -0.73837000    2.15336100   -0.01396500
 H                  1.74766600    2.15195500    0.00140700
 H                  2.99641400   -0.00535300    0.01072500
 H                  1.73806500   -2.15734700    0.00104300
 H                 -0.74781800   -2.14797300   -0.01403700
 C                 -2.42550400    0.00130600    0.00705100
 H                 -2.82984200    0.96581800   -0.31810700
 H                 -2.82997900   -0.77627700   -0.65095700
 H                 -2.80813300   -0.19437400    1.01681100

