%nprocshared=48
%mem=512MW
%chk=TS_NCNPtPhMe_rotatePh.chk                 
# freq gen scrf=(iefpcm,solvent=thf) m06 EmpiricalDispersion=GD3 Pseudo=Read 

TS for phenyl rotation in (NCN)PtPh[eq]Me[ax]; M06 with Custom Lanl2tz(f)+6-311g(d,p) basis set

1 1
 Pt                -0.071191   -0.006744   -0.211701
 C                  1.898700    0.357723   -0.090601
 C                  2.758617   -0.713832    0.037700
 C                  2.321146    1.660888    0.080676
 C                  4.073298   -0.484122    0.415631
 C                  3.634642    1.898691    0.462471
 C                  4.496191    0.822112    0.638751
 H                  4.768325   -1.311192    0.535119
 H                  3.992060    2.913929    0.613899
 H                  5.521103    1.004769    0.944437
 N                 -0.098096    2.181567   -0.102664
 N                  0.691549   -2.069878   -0.030988
 C                  0.175350   -0.016924   -2.248351
 H                  0.672207   -0.943628   -2.532822
 H                  0.778997    0.832334   -2.564617
 H                 -0.841091    0.030326   -2.641887
 C                  2.164807   -2.018884   -0.355895
 H                  2.260805   -2.130816   -1.439843
 H                  2.667126   -2.880050    0.094105
 C                  1.316195    2.685804   -0.304070
 H                  1.422170    2.893640   -1.374216
 H                  1.447510    3.642820    0.203277
 C                 -0.953891    2.799577   -1.171282
 C                 -1.213225    4.283633   -1.058372
 H                 -1.894181    2.256916   -1.204779
 H                 -0.447908    2.585996   -2.114744
 H                 -1.762144    4.594204   -1.950507
 H                 -1.834085    4.532608   -0.194873
 H                 -0.294935    4.875074   -1.019335
 C                 -0.582526    2.468972    1.304578
 C                 -0.138822    3.760530    1.962645
 H                 -0.242761    1.660051    1.962739
 H                 -1.670464    2.400633    1.270889
 H                 -0.693651    3.847751    2.900250
 H                  0.922777    3.746139    2.221541
 H                 -0.345241    4.654382    1.374000
 C                  0.524383   -2.338812    1.439555
 C                  0.901661   -3.718506    1.930738
 H                 -0.522749   -2.140279    1.679837
 H                  1.123079   -1.580364    1.955222
 H                  0.750042   -3.735962    3.012441
 H                  0.268967   -4.499759    1.503835
 H                  1.948973   -3.969804    1.749131
 C                  0.015992   -3.120885   -0.879047
 C                  0.849851   -4.302421   -1.334769
 H                 -0.407606   -2.615650   -1.749688
 H                 -0.822511   -3.501224   -0.301087
 H                  0.169217   -5.001015   -1.827782
 H                  1.616244   -4.035729   -2.064133
 H                  1.324724   -4.838257   -0.511278
 C                 -2.233400   -0.391945    0.066088
 C                 -2.741709   -1.675457    0.321955
 C                 -3.221563    0.607208    0.108526
 C                 -4.081099   -1.950739    0.559330
 H                 -2.081950   -2.530308    0.358921
 C                 -4.567275    0.359627    0.341561
 H                 -2.973177    1.652622   -0.028741
 C                 -5.013923   -0.930204    0.562668
 H                 -4.390013   -2.975647    0.746812
 H                 -5.266921    1.191141    0.354765
 H                 -6.064630   -1.133641    0.744422

Pt     0
S    1   1.00
      2.5470000              1.0000000
S    1   1.00
      1.6140000              1.0000000
S    1   1.00
      0.5167000              1.0000000
S    1   1.00
      0.2651000              1.0000000
S    1   1.00
      0.0580000              1.0000000
P    1   1.00
      2.9110000              1.0000000
P    1   1.00
      1.8360000              1.0000000
P    1   1.00
      0.5982000              1.0000000
P    1   1.00
      0.0996000              1.0000000
P    1   1.00
      0.0290000              1.0000000
D    1   1.00
      1.2430000              1.0000000
D    1   1.00
      0.4271000              1.0000000
D    1   1.00
      0.1370000              1.0000000
F    1   1.00
      0.9930000              1.0000000
****
C H N 0
6-311G(2d,p)
****

Pt     0
Pt-ECP     4     60
g potential
  5
1    728.9394056             -0.1619268
2    320.6567800          -1320.2873852
2     52.8680174           -298.3178135
2     12.0280128            -87.5837065
2      3.5238913             -8.1493274
s-g potential
  6
0    409.4437358              2.7334218
1    274.5419231             59.7024329
2    127.5658570            891.4589550
2     32.9036631            368.4467656
2      5.0593880            238.0263090
2      4.1506556           -107.0556454
p-g potential
  4
0    466.1728892              1.8878568
1    120.7888259             76.0138629
2     36.4118791            343.5511116
2      5.6985408            119.4911786
d-g potential
  5
0    249.5650763              2.9343678
1    126.6678585             59.3306571
2     63.1430586            452.4445194
2     17.9059470            210.4769479
2      4.2239373             58.6254112
f-g potential
  5
0    121.8158799              3.9534253
1     60.8757030             53.8555182
2     31.4767147            247.4305133
2      9.8811751            127.8187976
2      2.7319874             15.3772046

