%nprocshared=24
%mem=512MW
%chk=TS_NCNPtMePh_rotatePh.chk                 
# opt=(ts,calcFC,noeigentest) freq gen scrf=(iefpcm,solvent=thf) m06 EmpiricalDispersion=GD3 Pseudo=Read 

TS for phenyl rotation in (NCN)PtMe[eq]Ph[ax]; M06 with Custom Lanl2tz(f)+6-311g(2d,p) basis set

1 1
 Pt                -0.03209300    0.08214800   -0.61457300
 C                 -0.14364300   -0.78654800    1.21032900
 C                  1.02991600   -1.27827500    1.78678300
 C                 -1.39896300   -0.90476100    1.81144800
 C                  0.94187500   -1.95083700    3.01481500
 C                 -1.49232700   -1.57909100    3.03941800
 C                 -0.32054800   -2.09853600    3.62493700
 H                  1.82700700   -2.35560300    3.49976500
 H                 -2.44945900   -1.70382100    3.54077100
 H                 -0.39135400   -2.62365200    4.57280900
 N                 -2.19404300   -0.15826700   -0.42622200
 N                  1.96280000   -0.80751000   -0.47114300
 C                  0.03436200    0.98114100   -2.57855500
 H                 -0.41075100    0.27898300   -3.30579900
 H                 -0.54618000    1.91580600   -2.59496400
 H                  1.06006300    1.20875400   -2.89927400
 C                  2.28951200   -0.95745100    1.01688100
 H                  2.69378100   -0.00040600    1.36375100
 H                  3.08157300   -1.70561000    1.14259000
 C                 -2.52253300   -0.22687100    1.06405600
 H                 -2.62553400    0.81353200    1.40002700
 H                 -3.49389000   -0.71151800    1.21319300
 C                 -3.07430800    0.82112800   -1.16735800
 C                 -4.56591200    0.49362100   -1.17518800
 H                 -2.68770100    0.87008800   -2.19024500
 H                 -2.92657200    1.80632400   -0.72114400
 H                 -5.09194500    1.32121300   -1.66099700
 H                 -4.79296200   -0.41284900   -1.74416800
 H                 -4.97671900    0.39340300   -0.16519500
 C                 -2.26483200   -1.53121700   -1.10598800
 C                 -3.27267800   -2.52660400   -0.53156200
 H                 -1.27519600   -2.00929000   -1.03802000
 H                 -2.45730000   -1.33752900   -2.16612300
 H                 -3.25757400   -3.42110200   -1.16161500
 H                 -3.00660300   -2.83406500    0.48473500
 H                 -4.29450800   -2.13796200   -0.52785200
 C                  1.66729200   -2.19124800   -1.05587700
 C                  2.86448700   -3.13072300   -1.19003400
 H                  1.22708200   -2.02436800   -2.04883100
 H                  0.91677900   -2.65588000   -0.40737500
 H                  2.49605300   -4.08493000   -1.57906200
 H                  3.61420300   -2.75737100   -1.89327700
 H                  3.34539400   -3.33562100   -0.22839500
 C                  3.04817600   -0.13057100   -1.29732600
 C                  4.47493300   -0.24940700   -0.76404800
 H                  2.78121700    0.92256300   -1.40364900
 H                  2.97469500   -0.55906000   -2.30259200
 H                  5.14774900    0.20364900   -1.49898100
 H                  4.61556700    0.29059000    0.17828700
 H                  4.79442200   -1.28454000   -0.61682800
 C                  0.35508000    1.90831900    0.21376300
 C                 -0.72002900    2.73912700    0.55327900
 C                  1.66378300    2.32553200    0.49182600
 C                 -0.48727800    3.98731600    1.15221000
 H                 -1.74561900    2.44782300    0.37101600
 C                  1.88783000    3.57646600    1.09077500
 H                  2.53310500    1.72461700    0.26120300
 C                  0.81795700    4.41491000    1.42227500
 H                 -1.33605100    4.61537900    1.40466600
 H                  2.90931800    3.88262600    1.29479900
 H                  0.99694600    5.38023400    1.88387300

Pt     0
S    1   1.00
      2.5470000              1.0000000
S    1   1.00
      1.6140000              1.0000000
S    1   1.00
      0.5167000              1.0000000
S    1   1.00
      0.2651000              1.0000000
S    1   1.00
      0.0580000              1.0000000
P    1   1.00
      2.9110000              1.0000000
P    1   1.00
      1.8360000              1.0000000
P    1   1.00
      0.5982000              1.0000000
P    1   1.00
      0.0996000              1.0000000
P    1   1.00
      0.0290000              1.0000000
D    1   1.00
      1.2430000              1.0000000
D    1   1.00
      0.4271000              1.0000000
D    1   1.00
      0.1370000              1.0000000
F    1   1.00
      0.9930000              1.0000000
****
C H N 0
6-311G(2d,p)
****

Pt     0
Pt-ECP     4     60
g potential
  5
1    728.9394056             -0.1619268
2    320.6567800          -1320.2873852
2     52.8680174           -298.3178135
2     12.0280128            -87.5837065
2      3.5238913             -8.1493274
s-g potential
  6
0    409.4437358              2.7334218
1    274.5419231             59.7024329
2    127.5658570            891.4589550
2     32.9036631            368.4467656
2      5.0593880            238.0263090
2      4.1506556           -107.0556454
p-g potential
  4
0    466.1728892              1.8878568
1    120.7888259             76.0138629
2     36.4118791            343.5511116
2      5.6985408            119.4911786
d-g potential
  5
0    249.5650763              2.9343678
1    126.6678585             59.3306571
2     63.1430586            452.4445194
2     17.9059470            210.4769479
2      4.2239373             58.6254112
f-g potential
  5
0    121.8158799              3.9534253
1     60.8757030             53.8555182
2     31.4767147            247.4305133
2      9.8811751            127.8187976
2      2.7319874             15.3772046

