%nprocshared=12
%mem=128MW
%chk=TS_NCNPtMePh_NCNPt_PhMe.chk
# opt=(ts,calcFC,noeigentest) freq gen scrf=(iefpcm,solvent=thf) m06 EmpiricalDispersion=GD3 Pseudo=Read 

TS between (NCN)PtMe[eq]Ph[ax] and NCNPt + PhMe; M06 with Custom Lanl2tz(f)+6-311g(d,p) basis set

1 1
Pt         0.107163   -0.110475   -0.190200
C         -1.260995    0.988478    0.762233
C         -2.464666    0.380504    1.128406
C         -0.969509    2.307569    1.107626
C         -3.440496    1.143474    1.777963
C         -1.943563    3.075120    1.755904
C         -3.180096    2.491862    2.068825
H         -4.390457    0.699073    2.064637
H         -1.744041    4.108657    2.028374
H         -3.941351    3.087216    2.563323
N          1.009720    1.907536   -0.300814
N         -1.697372   -1.426257   -0.353035
C          1.285612   -1.481925   -1.801273
H          0.406856   -1.194643   -2.388356
H          2.175695   -1.063186   -2.258289
H          1.359485   -2.565140   -1.760462
C         -2.534770   -1.095073    0.864206
H         -2.092561   -1.635681    1.710893
H         -3.559218   -1.465003    0.738156
C          0.447761    2.709497    0.853548
H          1.058906    2.447910    1.727897
H          0.574563    3.782666    0.676255
C          2.510573    1.923133   -0.242685
C          3.198732    3.281144   -0.328997
H          2.845591    1.297300   -1.066729
H          2.785719    1.423168    0.692301
H          4.270409    3.126293   -0.170399
H          3.078795    3.744657   -1.312146
H          2.854375    3.981136    0.438563
C          0.497586    2.410203   -1.650152
C          0.260488    3.911640   -1.789534
H         -0.450800    1.904788   -1.855399
H          1.219598    2.052956   -2.393704
H         -0.007967    4.107868   -2.832302
H         -0.578832    4.246907   -1.171394
H          1.134732    4.521742   -1.552237
C         -2.387455   -0.897314   -1.602091
C         -3.687502   -1.583554   -2.005222
H         -1.666071   -0.977787   -2.421795
H         -2.570371    0.167978   -1.432940
H         -4.092251   -1.047502   -2.869186
H         -3.535591   -2.622988   -2.308650
H         -4.448393   -1.549229   -1.218896
C         -1.428758   -2.911377   -0.487059
C         -2.507082   -3.857070    0.037173
H         -0.492106   -3.129840    0.031102
H         -1.251054   -3.099249   -1.551432
H         -2.200026   -4.879638   -0.203198
H         -2.613650   -3.799115    1.124177
H         -3.486828   -3.689346   -0.416400
C          1.937254   -1.470355   -0.074198
C          3.281985   -1.065854   -0.165639
C          1.598241   -2.461691    0.870570
C          4.240323   -1.577334    0.714028
H          3.611363   -0.367129   -0.928598
C          2.564185   -2.969103    1.745614
H          0.575077   -2.808593    0.985217
C          3.890263   -2.531115    1.674942
H          5.268636   -1.239671    0.627249
H          2.268561   -3.707739    2.484422
H          4.639421   -2.935925    2.347376

Pt     0
S    1   1.00
      2.5470000              1.0000000
S    1   1.00
      1.6140000              1.0000000
S    1   1.00
      0.5167000              1.0000000
S    1   1.00
      0.2651000              1.0000000
S    1   1.00
      0.0580000              1.0000000
P    1   1.00
      2.9110000              1.0000000
P    1   1.00
      1.8360000              1.0000000
P    1   1.00
      0.5982000              1.0000000
P    1   1.00
      0.0996000              1.0000000
P    1   1.00
      0.0290000              1.0000000
D    1   1.00
      1.2430000              1.0000000
D    1   1.00
      0.4271000              1.0000000
D    1   1.00
      0.1370000              1.0000000
F    1   1.00
      0.9930000              1.0000000
****
C H N 0
6-311G(2d,p)
****

Pt     0
Pt-ECP     4     60
g potential
  5
1    728.9394056             -0.1619268
2    320.6567800          -1320.2873852
2     52.8680174           -298.3178135
2     12.0280128            -87.5837065
2      3.5238913             -8.1493274
s-g potential
  6
0    409.4437358              2.7334218
1    274.5419231             59.7024329
2    127.5658570            891.4589550
2     32.9036631            368.4467656
2      5.0593880            238.0263090
2      4.1506556           -107.0556454
p-g potential
  4
0    466.1728892              1.8878568
1    120.7888259             76.0138629
2     36.4118791            343.5511116
2      5.6985408            119.4911786
d-g potential
  5
0    249.5650763              2.9343678
1    126.6678585             59.3306571
2     63.1430586            452.4445194
2     17.9059470            210.4769479
2      4.2239373             58.6254112
f-g potential
  5
0    121.8158799              3.9534253
1     60.8757030             53.8555182
2     31.4767147            247.4305133
2      9.8811751            127.8187976
2      2.7319874             15.3772046

