8
c2h6.log	Energy:  -50097.4088797
H          1.15726        0.87656        0.51373
C          0.76109        0.00000        0.00001
H          1.15729        0.00663       -1.01597
H          1.15726       -0.88319        0.50225
C         -0.76109       -0.00000       -0.00000
H         -1.15729       -0.00690        1.01597
H         -1.15726        0.88332       -0.50201
H         -1.15726       -0.87642       -0.51397
