39
HZIrMe.log	Energy: -511086.3682781
C          1.68629        1.15087       -0.19571
C          1.66821       -1.18230       -0.19302
C          3.05667        1.17840       -0.03835
C          3.03515       -1.23351       -0.03507
C          3.73828       -0.03335        0.05827
H          3.58858        2.12011        0.00045
H          3.56220       -2.17602        0.00762
O          5.07798       -0.10518        0.22569
N          1.01799       -0.00918       -0.23103
C          0.79385        2.33297       -0.46095
H          0.72987        2.44195       -1.54519
H          1.20725        3.26082       -0.05738
C          0.75543       -2.34884       -0.45796
H          0.69117       -2.45759       -1.54217
H          1.15306       -3.28298       -0.05330
N         -0.60038        2.11782        0.03743
N         -0.63572       -2.11013        0.03825
C         -1.52007        2.96213       -0.74182
H         -2.52645        2.82833       -0.35360
H         -1.24079        4.01961       -0.67006
H         -1.50038        2.64736       -1.78226
C         -0.66776        2.53531        1.45184
H         -0.45726        3.60732        1.54340
H         -1.66148        2.32632        1.83848
H          0.05982        1.97439        2.03334
C         -1.56811       -2.93823       -0.74342
H         -1.30595       -4.00013       -0.67300
H         -2.57273       -2.78892       -0.35637
H         -1.54192       -2.62211       -1.78333
C         -0.71282       -2.52707        1.45232
H         -1.70373       -2.30186        1.83706
H         -0.52027       -3.60241        1.54372
H          0.02294       -1.97872        2.03554
Ir        -0.95235        0.00612       -0.07444
H          5.45601        0.77489        0.26740
C         -3.05310        0.02236        0.22340
H         -3.43218        0.90007        0.77375
H         -3.59848        0.02986       -0.73582
H         -3.44704       -0.85194        0.76862
