40
HZIrMeH.log	Energy: -511401.5270092
C         -1.69569       -1.18496       -0.17606
C         -1.71397        1.15231       -0.18401
C         -3.06077       -1.23994       -0.02189
C         -3.08256        1.18524       -0.03204
C         -3.76041       -0.03298        0.06162
H         -3.59192       -2.17878        0.02678
H         -3.61735        2.12406        0.00707
O         -5.08624       -0.10720        0.22264
N         -1.06957       -0.01001       -0.22610
C         -0.77470       -2.35168       -0.42850
H         -0.73526       -2.48698       -1.51011
H         -1.15791       -3.27584        0.00599
C         -0.81220        2.33345       -0.43915
H         -0.76739        2.46182       -1.52144
H         -1.21283        3.25433       -0.01330
N          0.63268       -2.10877        0.03766
N          0.59517        2.11607        0.03821
C          3.03008        0.02464        0.27268
H          3.21602        0.04510        1.35894
H          3.56334       -0.85456       -0.10642
H          3.55250        0.89640       -0.13744
C          1.54181       -2.95004       -0.76617
H          2.55299       -2.83431       -0.38807
H          1.24915       -4.00091       -0.69961
H          1.51032       -2.62462       -1.80215
C          0.74143       -2.51824        1.45656
H          0.52474       -3.58302        1.56357
H          1.75023       -2.31704        1.80827
H          0.03098       -1.95181        2.05732
C          1.49534        2.97608       -0.75547
H          1.18373        4.02145       -0.68765
H          2.50545        2.87658       -0.36988
H          1.47760        2.65363       -1.79271
C          0.68354        2.52219        1.45956
H          1.69402        2.34301        1.81823
H          0.44141        3.58123        1.56908
H         -0.01766        1.93609        2.05221
H          1.16381        0.00775       -1.58645
Ir         0.96356        0.00674       -0.06918
H         -5.47957        0.76750        0.26199
