40
HZPtMeH_sigma.log	Energy: -520702.5648642
Pt         0.88328        0.00344       -0.09932
C         -1.68762       -1.18751       -0.12240
C         -1.69874        1.16600       -0.12151
C         -3.05012       -1.23012       -0.00424
C         -3.06454        1.19499       -0.00466
C         -3.75222       -0.02141        0.06710
H         -3.58237       -2.16863        0.01402
H         -3.59187        2.13757        0.01206
O         -5.07031       -0.09739        0.18140
N         -1.05340       -0.00601       -0.14384
C         -0.78642       -2.35632       -0.38558
H         -0.78759       -2.52054       -1.46326
H         -1.14220       -3.26839        0.09144
C         -0.81144        2.34662       -0.38030
H         -0.81848        2.51705       -1.45701
H         -1.17627        3.25183        0.10307
N          0.62826       -2.07932        0.03118
N          0.60779        2.08345        0.03054
C          3.27528        0.01507        0.30568
H          2.80238        0.00865        1.28856
H          3.88467       -0.87720        0.20400
H          3.87463        0.91490        0.21075
C          1.53930       -2.88121       -0.81843
H          2.55685       -2.76839       -0.45648
H          1.26087       -3.93445       -0.76818
H          1.47541       -2.53232       -1.84558
C          0.79637       -2.48292        1.45287
H          0.62782       -3.55625        1.54636
H          1.80562       -2.25134        1.78037
H          0.08114       -1.94925        2.07356
C          1.50835        2.89161       -0.82446
H          1.22278        3.94288       -0.77318
H          2.52853        2.78621       -0.46770
H          1.44156        2.54175       -1.85110
C          0.77939        2.49150        1.45044
H          1.79306        2.27178        1.77232
H          0.59957        3.56310        1.54293
H          0.07407        1.95074        2.07624
H          2.65309        0.01524       -0.65229
H         -5.48048        0.77146        0.20266
