35
HZPt.log	Energy: -495270.8485990
Pt         1.03165        0.00683       -0.03834
C         -1.50168       -1.19150       -0.13269
C         -1.51823        1.16590       -0.12572
C         -2.86652       -1.23445       -0.04482
C         -2.88657        1.18872       -0.03871
C         -3.57299       -0.02846        0.01962
H         -3.39618       -2.17462       -0.04519
H         -3.41540        2.13064       -0.03624
O         -4.89332       -0.10822        0.10957
N         -0.87058       -0.00650       -0.12901
C         -0.59420       -2.35717       -0.39138
H         -0.58420       -2.51324       -1.47023
H         -0.95624       -3.27238        0.07462
C         -0.63054        2.34889       -0.37532
H         -0.63475        2.52128       -1.45167
H         -1.00116        3.25169        0.10804
N          0.81136       -2.07383        0.04420
N          0.78422        2.08107        0.04191
C          1.75510       -2.80214       -0.83358
H          2.76824       -2.63472       -0.47673
H          1.53987       -3.87156       -0.80836
H          1.65995       -2.43309       -1.85147
C          0.98016       -2.53124        1.44419
H          0.84313       -3.61250        1.49300
H          1.97952       -2.28278        1.78976
H          0.24624       -2.04390        2.08089
C          1.70718        2.82474       -0.84558
H          1.48104        3.89154       -0.80938
H          2.72715        2.66495       -0.50472
H          1.60024        2.46134       -1.86418
C          0.96478        2.53793        1.44104
H          1.97143        2.30148        1.77354
H          0.81449        3.61708        1.49451
H          0.24561        2.03977        2.08615
H         -5.30553        0.75960        0.12951
