39
HZPtMe.log	Energy: -520439.9882483
Pt        -0.94334        0.00496       -0.07129
C          1.70327        1.15625       -0.19980
C          1.68829       -1.18318       -0.19947
C          3.07002        1.19076       -0.03830
C          3.05166       -1.23706       -0.03663
C          3.74853       -0.02806        0.05255
H          3.60280        2.12975        0.01622
H          3.58362       -2.17475        0.02130
O          5.07167       -0.10120        0.22263
N          1.06607       -0.00786       -0.26103
C          0.79237        2.33552       -0.42880
H          0.75213        2.49804       -1.50629
H          1.17828        3.24695        0.02889
C          0.75964       -2.34784       -0.43122
H          0.71481       -2.50549       -1.50924
H          1.13324       -3.26638        0.02219
N         -0.61494        2.08676        0.04045
N         -0.64311       -2.08048        0.04148
C         -2.98999        0.01797        0.19175
H         -3.34555        0.89901        0.73717
H         -3.50287        0.01774       -0.77740
H         -3.35540       -0.85552        0.74277
C         -1.53615        2.91509       -0.76483
H         -2.54702        2.78095       -0.39139
H         -1.26000        3.96964       -0.69143
H         -1.49410        2.59576       -1.80263
C         -0.72067        2.49201        1.46256
H         -0.52434        3.56259        1.55759
H         -1.72102        2.27357        1.82440
H          0.00193        1.93726        2.05609
C         -1.57710       -2.89686       -0.76139
H         -1.31355       -3.95470       -0.68927
H         -2.58512       -2.75048       -0.38479
H         -1.53419       -2.57767       -1.79921
C         -0.75048       -2.48412        1.46393
H         -1.74657       -2.25156        1.82873
H         -0.56882       -3.55731        1.55841
H         -0.01816       -1.93976        2.05520
H          5.46425        0.77338        0.27361
