40
HZPtMeH.log	Energy: -520682.6987039
Pt        -0.94784        0.00374       -0.08389
C          1.72236        1.16598       -0.17844
C          1.71175       -1.18596       -0.18760
C          3.08619        1.20187       -0.02624
C          3.07214       -1.23639       -0.03434
C          3.76733       -0.02108        0.04954
H          3.61907        2.14001        0.02858
H          3.60990       -2.17068        0.01635
O          5.08288       -0.09620        0.20133
N          1.09656       -0.00524       -0.24769
C          0.80260        2.33959       -0.39840
H          0.76786        2.52029       -1.47272
H          1.16644        3.24678        0.08127
C          0.77687       -2.34539       -0.41757
H          0.72662       -2.50808       -1.49428
H          1.13514       -3.26418        0.04363
N         -0.61770        2.08101        0.05397
N         -0.63429       -2.07636        0.05555
C         -2.98711        0.00625        0.19551
H         -3.14988       -0.06578        1.27505
H         -3.45599        0.91921       -0.16554
H         -3.47614       -0.83683       -0.28833
C         -1.51767        2.96263       -0.72801
H         -2.53033        2.86517       -0.35217
H         -1.19309        3.99699       -0.61589
H         -1.48461        2.67822       -1.77512
C         -0.74361        2.42019        1.50158
H         -0.51549        3.47560        1.64491
H         -1.75988        2.22083        1.82916
H         -0.04051        1.82229        2.08037
C         -1.55359       -2.95447       -0.70725
H         -1.23469       -3.99083       -0.59601
H         -2.55901       -2.84616       -0.31467
H         -1.53562       -2.67573       -1.75619
C         -0.73758       -2.41019        1.50603
H         -1.74838       -2.21155        1.84969
H         -0.50569       -3.46457        1.65004
H         -0.02647       -1.80844        2.07095
H         -1.33983        0.00777       -1.53281
H          5.48878        0.77369        0.24530
