35
HZRh.log	Energy: -489847.7962183
C          1.29838        1.14877       -0.18537
C          1.26791       -1.18664       -0.19008
C          2.66931        1.16821       -0.05519
C          2.63486       -1.24444       -0.05901
C          3.34677       -0.04798        0.02385
H          3.20353        2.10785       -0.02384
H          3.15507       -2.19032       -0.02884
O          4.67621       -0.13022        0.16437
N          0.62944       -0.00873       -0.21646
C          0.42637        2.34852       -0.42606
H          0.38843        2.49761       -1.50627
H          0.84715        3.25418        0.01724
C          0.36168       -2.35921       -0.43675
H          0.31165       -2.49600       -1.51808
H          0.76105       -3.28022       -0.00548
N         -0.96482        2.12063        0.04632
N         -1.01923       -2.09732        0.04795
C         -1.89597        2.95032       -0.73292
H         -2.90573        2.78992       -0.36071
H         -1.65066        4.01352       -0.64147
H         -1.85361        2.65705       -1.77904
C         -1.05878        2.49103        1.47219
H         -0.87345        3.56245        1.60219
H         -2.05282        2.25461        1.84425
H         -0.32675        1.92841        2.04683
C         -1.97577       -2.90650       -0.72108
H         -1.75279       -3.97471       -0.63119
H         -2.97836       -2.72422       -0.33954
H         -1.93717       -2.61519       -1.76793
C         -1.10745       -2.46400        1.47510
H         -2.09201       -2.20482        1.85694
H         -0.94516       -3.53923        1.60446
H         -0.35687       -1.91798        2.04178
Rh        -1.28324        0.01524       -0.09028
H          5.07291        0.74271        0.20346
