40
HZRhMeH_sigma.log	Energy: -515286.0705856
C          1.51861        1.15313       -0.18867
C          1.50287       -1.17951       -0.18915
C          2.88689        1.18387       -0.03577
C          2.86774       -1.23080       -0.03501
C          3.57003       -0.02872        0.05707
H          3.41531        2.12640        0.00339
H          3.39412       -2.17277        0.00649
O          4.89643       -0.10166        0.22052
N          0.85905       -0.00719       -0.23013
C          0.63992        2.34400       -0.44461
H          0.60770        2.48289       -1.52634
H          1.04966        3.25725       -0.00711
C          0.60529       -2.35541       -0.44800
H          0.56791       -2.48907       -1.53022
H          1.00265       -3.27642       -0.01551
N         -0.75572        2.11556        0.02086
N         -0.78550       -2.10748        0.02194
C         -3.48243        0.02276        0.18415
H         -2.84992        0.01890        1.08729
H         -4.09126        0.92155        0.19744
H         -4.10269       -0.86816        0.19770
C         -1.67085        2.95800       -0.76605
H         -2.68224        2.83168       -0.38795
H         -1.39532        4.01441       -0.68902
H         -1.64104        2.64908       -1.80791
C         -0.85453        2.49296        1.44504
H         -0.64411        3.55958        1.57242
H         -1.85783        2.28310        1.80698
H         -0.14252        1.91443        2.02910
C         -1.71458       -2.93790       -0.76133
H         -1.45203       -3.99768       -0.68572
H         -2.72281       -2.79897       -0.37915
H         -1.68503       -2.62918       -1.80327
C         -0.88460       -2.48264        1.44674
H         -1.88330       -2.25780        1.81241
H         -0.68937       -3.55214        1.57400
H         -0.16168       -1.91467        2.02778
H         -2.92173        0.01903       -0.78474
Rh        -1.08230        0.00607       -0.11118
H          5.28682        0.77398        0.26568
