39
HZRhMe.log	Energy: -514970.5821460
C          1.50117        1.14681       -0.22815
C          1.48071       -1.17937       -0.22634
C          2.86901        1.17721       -0.04248
C          2.84507       -1.23628       -0.04013
C          3.54708       -0.03615        0.06192
H          3.40016        2.11816        0.01673
H          3.36925       -2.17915        0.02240
O          4.88007       -0.10903        0.25346
N          0.83924       -0.00914       -0.29046
C          0.61651        2.33953       -0.48063
H          0.55057        2.45719       -1.56387
H          1.04778        3.26003       -0.07483
C          0.57271       -2.35428       -0.47897
H          0.50495       -2.47070       -1.56222
H          0.98639       -3.28261       -0.07296
N         -0.76702        2.13489        0.02530
N         -0.80697       -2.12305        0.02634
C         -1.69094        3.00250       -0.71408
H         -2.69521        2.85271       -0.32562
H         -1.41679        4.05980       -0.60762
H         -1.68008        2.72933       -1.76654
C         -0.81667        2.49391        1.45172
H         -0.58741        3.55845        1.59074
H         -1.81077        2.28527        1.83817
H         -0.09575        1.89762        2.00640
C         -1.74679       -2.97289       -0.71357
H         -1.49216       -4.03511       -0.60786
H         -2.74817       -2.80506       -0.32510
H         -1.73078       -2.69931       -1.76585
C         -0.86407       -2.48081        1.45282
H         -1.85430       -2.25388        1.83885
H         -0.65464       -3.54937        1.59205
H         -0.13234       -1.89810        2.00779
H          5.25999        0.77010        0.30288
C         -3.23272        0.02651        0.20535
H         -3.59341        0.90754        0.76094
H         -3.78604        0.03246       -0.74830
H         -3.60908       -0.84905        0.75908
Rh        -1.14702        0.00860       -0.11457
