61
Me-NCNPtPh; M06/LANL2TZ + 6-311G(2d,p); E(RM06) = -1125.51957920 A.U.; G(RM06) = -1125.039782 A.U.
Pt        -0.000185   -0.024009   -0.119661
C          0.115036   -2.212947   -0.913732
C         -1.062172   -2.471052   -0.167000
C          1.334009   -2.328110   -0.200253
C         -0.999294   -3.155515    1.038244
C          1.382453   -3.011893    1.007269
C          0.224886   -3.507176    1.583171
H         -1.922428   -3.383488    1.565191
H          2.338724   -3.133524    1.508618
H          0.271428   -4.073379    2.506560
N          2.162191   -0.075770   -0.154607
N         -2.137544   -0.322611   -0.093794
C          0.078976   -2.011407   -2.413137
H         -0.752547   -2.576349   -2.841400
H          0.993048   -2.402613   -2.865027
H         -0.028700   -0.970130   -2.733258
C         -2.301221   -1.742997   -0.581282
H         -2.399845   -1.705277   -1.667829
H         -3.213903   -2.186789   -0.174980
C          2.473915   -1.467701   -0.647750
H          2.543564   -1.415648   -1.736274
H          3.438250   -1.809775   -0.267890
C          2.691343    0.950460   -1.103942
C          4.185116    0.970025   -1.339480
H          2.350696    1.919989   -0.732791
H          2.164789    0.774978   -2.048553
H          4.386469    1.630471   -2.186513
H          4.736290    1.366073   -0.485085
H          4.588756   -0.014348   -1.592805
C          2.606681    0.153580    1.263401
C          3.983074   -0.330433    1.672284
H          1.863593   -0.321293    1.913021
H          2.509947    1.231487    1.422011
H          4.172720    0.036270    2.684206
H          4.048835   -1.420379    1.716289
H          4.788612    0.033816    1.035158
C         -2.536728   -0.171241    1.341994
C         -3.990549   -0.385468    1.704419
H         -2.228182    0.836960    1.630774
H         -1.904662   -0.863402    1.906746
H         -4.061273   -0.420797    2.794394
H         -4.627986    0.433098    1.366733
H         -4.398749   -1.326470    1.325606
C         -2.833498    0.642410   -1.002151
C         -4.239791    0.295159   -1.445443
H         -2.195913    0.736400   -1.887045
H         -2.808378    1.610942   -0.494464
H         -4.580273    1.086937   -2.117501
H         -4.280864   -0.639536   -2.009789
H         -4.955314    0.231146   -0.626557
C         -0.111978    1.966603    0.161333
C         -0.195840    2.845755   -0.918231
C         -0.098711    2.501456    1.449132
C         -0.268996    4.216464   -0.715524
H         -0.201270    2.458780   -1.935704
C         -0.171476    3.873903    1.651172
H         -0.028402    1.842218    2.312442
C         -0.257955    4.736086    0.570164
H         -0.334394    4.882622   -1.571177
H         -0.159586    4.268102    2.663439
H         -0.314877    5.808480    0.727860
