38
MeZPt.log	Energy: -519931.5742683
Pt         1.26923        0.11691       -0.07699
C         -1.10393       -1.39034       -0.14460
C         -1.41077        0.94525       -0.15062
C         -2.45078       -1.59795       -0.06378
C         -2.77455        0.80372       -0.06760
C         -3.30972       -0.48881       -0.01322
H         -2.86236       -2.59597       -0.05749
H         -3.39828        1.68272       -0.06281
O         -4.59821       -0.75867        0.06546
N         -0.62020       -0.13386       -0.15695
C         -0.06117       -2.44546       -0.36302
H         -0.01546       -2.63486       -1.43565
H         -0.31512       -3.38297        0.13008
C         -0.68332        2.23805       -0.37441
H         -0.69399        2.42699       -1.44804
H         -1.17896        3.07552        0.11527
N          1.28903       -1.97954        0.07617
N          0.74428        2.15103        0.06274
C          2.33160       -2.64807       -0.73537
H          3.30959       -2.33551       -0.37848
H          2.24413       -3.73111       -0.63797
H          2.21669       -2.36395       -1.77775
C          1.48815       -2.31358        1.51170
H          1.51712       -3.39717        1.63403
H          2.42613       -1.88455        1.85380
H          0.66935       -1.90460        2.09825
C          1.57032        3.06949       -0.75147
H          1.19937        4.09105       -0.65324
H          2.59628        3.02605       -0.39375
H          1.53431        2.76540       -1.79380
C          0.84482        2.55037        1.49342
H          1.86793        2.41077        1.83255
H          0.56949        3.60066        1.59787
H          0.17708        1.93910        2.09503
C         -5.54066        0.31250        0.09132
H         -6.51564       -0.15832        0.14742
H         -5.47113        0.90657       -0.81995
H         -5.38293        0.93984        0.96831
