46
MeZPtMeMe.log	Energy: -570014.0948998
Pt         1.11771        0.06150        0.03571
C         -1.39071       -1.36356       -0.34054
C         -1.62089        0.97131       -0.28696
C         -2.73809       -1.54302       -0.20122
C         -2.98537        0.88237       -0.14096
C         -3.55278       -0.40020       -0.08561
H         -3.18459       -2.52510       -0.15965
H         -3.58485        1.77435       -0.05969
O         -4.84056       -0.63040        0.08730
N         -0.88219       -0.12828       -0.37761
C         -0.33320       -2.42245       -0.51519
H         -0.12230       -2.51560       -1.58062
H         -0.65827       -3.39556       -0.15193
C         -0.80925        2.23302       -0.43289
H         -0.70024        2.43167       -1.49890
H         -1.30235        3.09412        0.01402
N          0.95846       -2.04736        0.17018
N          0.58130        2.11091        0.14658
C          3.08543        0.21729        0.60932
H          3.13614       -0.01966        1.67584
H          3.72385       -0.47909        0.06648
H          3.47950        1.22179        0.46056
C          2.05508       -2.87318       -0.38501
H          2.97071       -2.65752        0.15600
H          1.80670       -3.92763       -0.26821
H          2.19263       -2.65710       -1.43942
C          0.83276       -2.35064        1.62627
H          0.66500       -3.41922        1.75523
H          1.75040       -2.06522        2.13267
H         -0.01061       -1.80762        2.04921
C          1.45504        3.10102       -0.52487
H          1.03146        4.09685       -0.39671
H          2.44172        3.07251       -0.07392
H          1.52720        2.87589       -1.58386
C          0.52794        2.43800        1.59844
H          1.52760        2.36598        2.01809
H          0.14954        3.45080        1.73025
H         -0.13348        1.73783        2.10803
C         -5.73266        0.46659        0.28133
H         -6.71256        0.02430        0.42136
H         -5.74277        1.11462       -0.59474
H         -5.45416        1.03261        1.17060
C          1.68099        0.18663       -1.91789
H          1.83547       -0.81831       -2.29462
H          0.86449        0.67064       -2.44702
H          2.59790        0.76375       -1.97189
