42
MeZPtMe.log	Energy: -545100.9173098
Pt         1.17281        0.07737       -0.06378
C         -1.32617       -1.36666       -0.23137
C         -1.57450        0.95751       -0.22754
C         -2.67706       -1.55471       -0.09792
C         -2.94440        0.86002       -0.09512
C         -3.50162       -0.42128       -0.01906
H         -3.11587       -2.54054       -0.05719
H         -3.55110        1.75038       -0.05485
O         -4.80232       -0.66124        0.12151
N         -0.82204       -0.13234       -0.27365
C         -0.27912       -2.42701       -0.45766
H         -0.19018       -2.55758       -1.53664
H         -0.56604       -3.38763       -0.03007
C         -0.78479        2.22326       -0.44590
H         -0.75569        2.39287       -1.52260
H         -1.26262        3.08974        0.01178
N          1.07583       -2.02613        0.05628
N          0.63786        2.11714        0.03088
C          3.20875        0.28450        0.20608
H          3.48400        1.21658        0.71162
H          3.64385       -0.52858        0.79775
H          3.72646        0.28402       -0.76052
C          2.10679       -2.75400       -0.71147
H          3.08452       -2.51271       -0.30501
H          1.94060       -3.83143       -0.63878
H          2.06712       -2.44527       -1.75251
C          1.17688       -2.41341        1.48350
H          1.09325       -3.49890        1.57800
H          2.13548       -2.08769        1.87646
H          0.37931       -1.93838        2.04956
C          1.47587        3.03124       -0.77237
H          1.09154        4.05200       -0.70649
H          2.49180        3.00416       -0.38958
H          1.47594        2.70469       -1.80873
C          0.69525        2.53849        1.45059
H          1.70982        2.42031        1.81944
H          0.39549        3.58564        1.53818
H          0.02619        1.91993        2.04386
C         -5.70363        0.43548        0.20914
H         -6.69058       -0.00153        0.31783
H         -5.66967        1.04015       -0.69795
H         -5.47942        1.05325        1.07963
