61
NCNPtPhMe; M06/LANL2TZ + 6-311G(2d,p); E(RM06) = -1125.46811108 A.U.; G(RM06) = -1124.987769 A.U.
Pt         0.057433   -0.007750   -0.204034
C         -1.925542    0.217001   -0.201843
C         -2.438182    1.494415   -0.104280
C         -2.706822   -0.921809   -0.175756
C         -3.803961    1.640579    0.098576
C         -4.072297   -0.779499    0.029358
C         -4.601184    0.500784    0.176556
H         -4.255250    2.624804    0.194259
H         -4.727096   -1.646294    0.070834
H         -5.667121    0.614191    0.345807
N         -0.512964   -2.072071   -0.041720
N         -0.041104    2.120004    0.061786
C         -0.009778    0.017042   -2.251113
H         -0.063213    1.057879   -2.571660
H         -0.895867   -0.520522   -2.588290
H          0.909329   -0.458530   -2.593168
C         -1.428321    2.577796   -0.333925
H         -1.391416    2.809255   -1.404034
H         -1.661577    3.513914    0.183406
C         -1.955745   -2.179780   -0.486837
H         -1.925803   -2.325501   -1.572938
H         -2.411403   -3.080277   -0.069327
C          0.366603   -2.968655   -0.857018
C          0.093763   -4.451541   -0.761382
H          1.392872   -2.743652   -0.555463
H          0.257403   -2.638070   -1.893430
H          0.732428   -4.958234   -1.488692
H          0.339555   -4.858558    0.221395
H         -0.940780   -4.708289   -1.003698
C         -0.360563   -2.338525    1.438725
C         -1.277346   -3.372690    2.058226
H         -0.532173   -1.401833    1.986925
H          0.690293   -2.600764    1.586179
H         -0.950667   -3.523040    3.089872
H         -2.314109   -3.029270    2.094999
H         -1.245232   -4.340544    1.556442
C          0.114475    2.188800    1.553836
C          0.207238    3.557946    2.191092
H          1.019438    1.619437    1.794295
H         -0.741999    1.649456    1.972975
H          0.204976    3.415538    3.274192
H          1.134269    4.072635    1.933636
H         -0.641226    4.201983    1.947934
C          1.037042    2.875742   -0.655430
C          0.812715    4.357299   -0.874962
H          1.168333    2.396304   -1.628277
H          1.957062    2.689849   -0.094083
H          1.702162    4.755130   -1.369397
H         -0.034331    4.553404   -1.535697
H          0.668390    4.922304    0.045355
C          2.179901   -0.238679   -0.021641
C          3.111683   -0.085417   -1.049671
C          2.698126   -0.546483    1.242021
C          4.475725   -0.234722   -0.838376
H          2.782542    0.169257   -2.057487
C          4.060045   -0.697445    1.469323
H          2.020792   -0.669560    2.090316
C          4.956773   -0.543853    0.424295
H          5.168151   -0.105600   -1.666287
H          4.420980   -0.936037    2.466254
H          6.022916   -0.661637    0.592441
