61
Ph-NCNPtMe; M06/LANL2TZ + 6-311G(2d,p); E(RM06) = -1125.51409191 A.U.; G(RM06) = -1125.035189 A.U.
Pt         0.136134   -0.729032   -0.418054
C         -0.162344    0.946247    1.139435
C          1.089913    0.542173    1.674935
C         -1.294269    0.226698    1.615898
C          1.145250   -0.212200    2.840333
C         -1.219358   -0.537794    2.767797
C         -0.012800   -0.678889    3.437392
H          2.117999   -0.452321    3.262172
H         -2.109352   -1.047831    3.125998
H          0.037026   -1.238329    4.364691
N         -2.016506   -0.900396   -0.373118
N          2.254940   -0.362969   -0.210460
C          2.297089    0.742630    0.819030
H          2.246693    1.696979    0.292351
H          3.233224    0.711779    1.382403
C         -2.441532    0.114058    0.663104
H         -2.617445    1.057326    0.141077
H         -3.373549   -0.184163    1.145960
C         -2.572505   -0.536319   -1.712388
C         -4.078609   -0.490237   -1.843681
H         -2.154668   -1.245804   -2.429425
H         -2.142954    0.443078   -1.948310
H         -4.322701   -0.043609   -2.810659
H         -4.529544   -1.484005   -1.824452
H         -4.550930    0.125784   -1.073417
C         -2.335280   -2.312095    0.036545
C         -3.686367   -2.590698    0.664265
H         -1.554019   -2.626841    0.735425
H         -2.202834   -2.913970   -0.866644
H         -3.794026   -3.675114    0.746924
H         -3.767830   -2.189064    1.677192
H         -4.529602   -2.219936    0.081546
C          2.841317   -1.633071    0.326442
C          4.326346   -1.657611    0.613403
H          2.592157   -2.410730   -0.399593
H          2.277537   -1.870555    1.232947
H          4.557702   -2.613169    1.090528
H          4.928786   -1.596465   -0.295026
H          4.646489   -0.870410    1.301421
C          2.896368    0.053103   -1.501359
C          4.146330    0.903959   -1.408334
H          2.139462    0.596781   -2.072890
H          3.098363   -0.868406   -2.053417
H          4.536333    1.038678   -2.420206
H          3.939759    1.901045   -1.012482
H          4.937504    0.454504   -0.807795
C          0.344097   -1.855158   -2.123159
H         -0.411180   -2.645518   -2.174023
H          0.224988   -1.195786   -2.991510
H          1.330032   -2.325863   -2.178192
C         -0.361671    2.255477    0.438461
C         -1.001001    3.239234    1.195210
C          0.038876    2.575151   -0.855931
C         -1.229346    4.501729    0.676643
H         -1.315531    3.004292    2.209056
C         -0.187547    3.840303   -1.374600
H          0.506282    1.820522   -1.480664
C         -0.820632    4.807075   -0.611650
H         -1.727175    5.250408    1.284259
H          0.129622    4.066157   -2.387471
H         -0.998033    5.796025   -1.021285
