15
PhMe; M06/LANL2TZ + 6-311G(2d,p); E(RM06) = -271.413266848 A.U.; G(RM06) = -271.317278 A.U.
C         -0.907550    0.000066   -0.010393
C         -0.193807    1.194236   -0.008643
C          1.191698    1.197159    0.001981
C          1.890414   -0.000054    0.008450
C          1.191591   -1.197221    0.001983
C         -0.193895   -1.194177   -0.008645
H         -0.737103    2.136531   -0.018442
H          1.729458    2.140622    0.000871
H          2.975945   -0.000093    0.013681
H          1.729264   -2.140734    0.000876
H         -0.737275   -2.136428   -0.018451
C         -2.404177    0.000027    0.008447
H         -2.810142    0.887449   -0.484459
H         -2.810123   -0.884915   -0.488943
H         -2.785675   -0.002643    1.035786
