40
QST2_HZIrMeH_sigma_HZIrMeH.log	Energy: -511389.5709043
C         -1.68342       -1.18404       -0.18175
C         -1.69757        1.15772       -0.18061
C         -3.04304       -1.23447        0.00100
C         -3.06050        1.18958        0.00089
C         -3.73971       -0.02720        0.10295
H         -3.57303       -2.17320        0.05971
H         -3.59102        2.12975        0.05770
O         -5.05932       -0.09969        0.29040
N         -1.04904       -0.00768       -0.24831
C         -0.77929       -2.35574       -0.44827
H         -0.75620       -2.49039       -1.53041
H         -1.16482       -3.27613       -0.00758
C         -0.81079        2.34343       -0.44404
H         -0.79354        2.48337       -1.52562
H         -1.20747        3.25651        0.00204
N          0.62790       -2.10961        0.00315
N          0.60124        2.11524        0.00173
C          3.01223        0.01891        0.56216
H          2.72870        0.01475        1.61965
H          3.63963       -0.85591        0.38368
H          3.62464        0.90487        0.38624
C          1.53733       -2.93011       -0.82072
H          2.55285       -2.80146       -0.45634
H          1.26625       -3.98750       -0.75813
H          1.48523       -2.59761       -1.85380
C          0.75264       -2.53805        1.41541
H          0.54881       -3.60845        1.50359
H          1.76077       -2.33381        1.76530
H          0.04589       -1.98633        2.03130
C          1.49718        2.94558       -0.82713
H          1.21489        4.00000       -0.76363
H          2.51586        2.82812       -0.46795
H          1.44364        2.61196       -1.85978
C          0.72719        2.54635        1.41313
H          1.73966        2.35548        1.75797
H          0.50993        3.61409        1.50190
H          0.03118        1.98524        2.03273
H          2.38692        0.01276       -0.75104
Ir         0.93485        0.00466       -0.09932
H         -5.45174        0.77499        0.34270
