39
QST2_YRhMeH_sigma_YRhMeH.log	Energy: -457669.8264104
C         -1.73856       -1.26967       -0.12207
C         -1.82399        1.14421       -0.12636
C         -3.11361       -1.32542        0.07060
C         -3.19954        1.10370        0.06562
C         -3.83154       -0.13456        0.17208
H         -3.63518       -2.27351        0.13969
H         -3.78663        2.01296        0.13077
C         -0.82434       -2.43895       -0.37408
H         -0.82509       -2.64860       -1.44497
H         -1.13384       -3.35779        0.13521
C         -0.99351        2.37381       -0.38037
H         -1.00390        2.57818       -1.45223
H         -1.36896        3.27082        0.12351
N          0.59138       -2.11121        0.00002
N          0.43981        2.14721        0.00122
C          2.98934        0.10450        0.31522
H          2.86825        0.09957        1.40695
H          3.61011       -0.75469        0.04902
H          3.55172        1.00345        0.05072
C          1.50733       -2.94783       -0.78510
H          2.52952       -2.74650       -0.47442
H          1.29148       -4.01194       -0.63614
H          1.40596       -2.70336       -1.83961
C          0.78280       -2.41087        1.43058
H          0.62339       -3.47776        1.62350
H          1.79343       -2.14106        1.72771
H          0.07385       -1.83557        2.02290
C          1.29860        3.04717       -0.77837
H          1.00650        4.09314       -0.63125
H          2.33051        2.91922       -0.46109
H          1.22186        2.79587       -1.83333
C          0.60170        2.45748        1.43310
H          1.62724        2.25946        1.73565
H          0.36630        3.51022        1.62618
H         -0.06802        1.83263        2.02078
H          2.03298        0.07935       -1.18513
H         -4.90208       -0.17208        0.32975
C         -1.10008       -0.03877       -0.20149
Rh         0.88544        0.03172       -0.16642
