40
QST2_HZRhMeH_sigma_HZRhMeH.log	Energy: -515271.8481714
C         -1.51785       -1.15508       -0.22823
C         -1.50178        1.18217       -0.23016
C         -2.87597       -1.18905       -0.00793
C         -2.85662        1.23705       -0.00948
C         -3.55120        0.02941        0.10799
H         -3.40550       -2.12816        0.07235
H         -3.38397        2.17573        0.07095
O         -4.86517        0.10307        0.33018
N         -0.87486        0.00760       -0.32244
C         -0.62819       -2.34058       -0.49032
H         -0.59397       -2.47197       -1.57267
H         -1.03257       -3.25852       -0.05901
C         -0.59266        2.35200       -0.49480
H         -0.55175        2.47798       -1.57758
H         -0.98451        3.27788       -0.06906
N          0.77211       -2.11722       -0.02000
N          0.80209        2.10833       -0.01807
C          3.11485       -0.02064        0.55194
H          2.86956       -0.01882        1.62080
H          3.71868       -0.90565        0.34684
H          3.73143        0.85550        0.34683
C          1.68101       -2.97268       -0.80185
H          2.69280       -2.84934       -0.42581
H          1.39387       -4.02475       -0.71520
H          1.65199       -2.67085       -1.84538
C          0.86361       -2.49025        1.40677
H          0.62367       -3.54893        1.53966
H          1.87281       -2.30403        1.76386
H          0.16658       -1.89210        1.99103
C          1.72648        2.95221       -0.79421
H          1.45240        4.00783       -0.70861
H          2.73445        2.81555       -0.41257
H          1.69930        2.65140       -1.83807
C          0.89171        2.47790        1.40971
H          1.89611        2.27599        1.77181
H          0.66693        3.53982        1.54310
H          0.18244        1.88977        1.98947
H          2.41060       -0.01494       -0.96572
Rh         1.13225       -0.00663       -0.13096
H         -5.25714       -0.77123        0.39183
