39
QST2_ZIrMeH_sigma_ZIrMeH.log	Energy: -511099.7367530
C         -1.71587       -1.17119       -0.22914
C         -1.71587        1.17118       -0.22914
C         -3.05482       -1.21984        0.01074
C         -3.05482        1.21984        0.01074
C         -3.81931       -0.00000        0.16143
H         -3.56968       -2.16793        0.08948
H         -3.56968        2.16793        0.08947
O         -5.04380       -0.00000        0.39909
N         -1.05805       -0.00000       -0.33249
C         -0.81285       -2.34169       -0.51381
H         -0.74744       -2.44437       -1.59746
H         -1.20882       -3.27573       -0.11138
C         -0.81285        2.34169       -0.51381
H         -0.74744        2.44437       -1.59746
H         -1.20883        3.27572       -0.11138
N          0.58152       -2.11374       -0.00990
N          0.58151        2.11375       -0.00990
C          2.98173       -0.00000        0.68470
H          2.60708        0.00001        1.71149
H          3.61454       -0.88097        0.56149
H          3.61456        0.88095        0.56147
C          1.51255       -2.94296       -0.79508
H          2.51658       -2.82158       -0.39628
H          1.23134       -3.99906       -0.73992
H          1.50030       -2.61468       -1.83091
C          0.64516       -2.54142        1.40441
H          0.43241       -3.61162        1.48484
H          1.63818       -2.34169        1.79854
H         -0.08584       -1.98631        1.98782
C          1.51254        2.94297       -0.79508
H          1.23133        3.99906       -0.73991
H          2.51657        2.82158       -0.39627
H          1.50030        2.61468       -1.83091
C          0.64515        2.54142        1.40441
H          1.63818        2.34169        1.79854
H          0.43240        3.61162        1.48484
H         -0.08585        1.98631        1.98782
H          2.44930        0.00001       -0.58996
Ir         0.90976        0.00000       -0.10315
