39
QST2_YIrMeH_sigma_YIrMeH.log	Energy: -453792.7111580
C         -1.93573       -1.20846       -0.09779
C         -1.93397        1.21115       -0.09757
C         -3.31557       -1.21408        0.05649
C         -3.31380        1.21874        0.05673
C         -3.99192        0.00281        0.14519
H         -3.87417       -2.14223        0.10257
H         -3.87105        2.14769        0.10301
C         -1.05381       -2.40229       -0.35272
H         -1.05074       -2.60068       -1.42553
H         -1.39176       -3.31542        0.14598
C         -1.05037        2.40377       -0.35241
H         -1.04730        2.60237       -1.42518
H         -1.38696        3.31727        0.14653
N          0.37760       -2.12455        0.03396
N          0.38077        2.12400        0.03392
C          2.91532       -0.00191        0.30658
H          2.77513       -0.00367        1.39398
H          3.51338       -0.88076        0.05309
H          3.51285        0.87804        0.05570
C          1.26157       -2.97954       -0.77406
H          2.28924       -2.83462       -0.45009
H          0.99528       -4.03545       -0.65744
H          1.17779       -2.69705       -1.82021
C          0.55124       -2.48903        1.45589
H          0.36067       -3.55778        1.59953
H          1.56704       -2.26022        1.76866
H         -0.14488       -1.91784        2.06598
C          1.26570        2.97771       -0.77440
H          1.00084        4.03398       -0.65783
H          2.29326        2.83148       -0.45067
H          1.18129        2.69518       -1.82049
C          0.55539        2.48830        1.45579
H          1.57092        2.25795        1.76830
H          0.36648        3.55735        1.59942
H         -0.14143        1.91819        2.06608
H          2.06254       -0.00166       -0.98713
Ir         0.72448       -0.00052       -0.11930
H         -5.06694        0.00359        0.27371
C         -1.25152        0.00085       -0.15053
