61
TS_NCNPtMePh_rotatePh; M06/LANL2TZ + 6-311G(2d,p); E(RM06) = -1125.44795234 A.U.; G(RM06) = -1124.967760 A.U.
Pt        -0.032804    0.086359   -0.607321
C         -0.150249   -0.764801    1.209695
C          1.006864   -1.269421    1.772369
C         -1.395239   -0.896014    1.794419
C          0.912591   -1.954858    2.975434
C         -1.492041   -1.583812    2.997303
C         -0.336595   -2.103918    3.573117
H          1.794329   -2.375379    3.452283
H         -2.452491   -1.721408    3.487955
H         -0.411397   -2.644488    4.511134
N         -2.182210   -0.145761   -0.422979
N          1.951566   -0.802782   -0.464452
C          0.058693    0.984178   -2.567499
H         -0.271167    0.263190   -3.330270
H         -0.599716    1.858820   -2.629018
H          1.067800    1.313457   -2.838142
C          2.261021   -0.961826    1.008935
H          2.677375   -0.014242    1.360322
H          3.040194   -1.718865    1.140862
C         -2.510811   -0.228322    1.048010
H         -2.630170    0.805285    1.391818
H         -3.478412   -0.718143    1.188847
C         -3.066355    0.813531   -1.149246
C         -4.539292    0.471337   -1.180781
H         -2.667895    0.885771   -2.164104
H         -2.935800    1.792526   -0.689575
H         -5.064902    1.297246   -1.665206
H         -4.748859   -0.429113   -1.761678
H         -4.966357    0.357398   -0.181174
C         -2.239728   -1.499700   -1.096902
C         -3.228636   -2.505501   -0.546429
H         -1.249174   -1.971495   -1.021918
H         -2.412736   -1.305217   -2.157866
H         -3.198633   -3.385982   -1.191985
H         -2.962102   -2.830433    0.461787
H         -4.254358   -2.134879   -0.537190
C          1.666365   -2.166525   -1.050602
C          2.840483   -3.112953   -1.171556
H          1.242600   -1.991981   -2.046825
H          0.897317   -2.624512   -0.423334
H          2.460002   -4.056428   -1.569459
H          3.602731   -2.752363   -1.864366
H          3.306893   -3.334229   -0.208992
C          3.042189   -0.145064   -1.269407
C          4.453272   -0.270912   -0.738713
H          2.787963    0.907645   -1.383741
H          2.968618   -0.568877   -2.274512
H          5.124398    0.186407   -1.469591
H          4.594286    0.263363    0.204046
H          4.775226   -1.303825   -0.597803
C          0.353695    1.901581    0.227193
C         -0.705941    2.722935    0.568627
C          1.647469    2.319577    0.486835
C         -0.472424    3.959038    1.156038
H         -1.730919    2.433795    0.394771
C          1.873521    3.557837    1.075000
H          2.511574    1.717939    0.250146
C          0.818102    4.384255    1.410897
H         -1.321161    4.584976    1.412503
H          2.896922    3.863947    1.267216
H          0.999543    5.350074    1.869677
