61
TS_NCNPtMePh_NCNPtPhMe_interconversion; M06/LANL2TZ + 6-311G(2d,p); E(RM06) = -1125.43884818 A.U.; G(RM06) = -1124.960047 A.U.
Pt         0.096982   -0.018142    0.064300
C         -1.872790    0.285853   -0.276516
C         -2.335870    1.592352   -0.471020
C         -2.699584   -0.820416   -0.514738
C         -3.707636    1.808495   -0.670809
C         -4.073244   -0.617901   -0.712953
C         -4.573346    0.699339   -0.737604
H         -4.100508    2.812403   -0.812789
H         -4.742079   -1.457266   -0.888421
H         -5.637688    0.862462   -0.877426
N         -0.654642   -2.125211    0.020401
N          0.017257    2.224915    0.059403
C          0.520969   -0.135443    2.109786
H         -0.441937    0.083708    2.582294
H          0.875330   -1.140440    2.333991
H          1.280816    0.597344    2.373204
C         -1.241104    2.594675   -0.716881
H         -0.977125    2.544994   -1.781704
H         -1.524104    3.630866   -0.501534
C         -1.938051   -2.085628   -0.799719
H         -1.626342   -2.068496   -1.853126
H         -2.514647   -3.003319   -0.652015
C          0.404659   -2.953491   -0.678636
C          0.060250   -4.415368   -0.949114
H          1.311296   -2.881663   -0.067810
H          0.609401   -2.435879   -1.624934
H          0.841627   -4.833055   -1.592051
H          0.038905   -5.013618   -0.033707
H         -0.893415   -4.531682   -1.475261
C         -0.960224   -2.640570    1.422063
C         -2.000126   -3.757679    1.551892
H         -1.319560   -1.791628    2.007751
H         -0.004653   -2.969926    1.844367
H         -1.965086   -4.112807    2.587081
H         -3.017073   -3.393068    1.373028
H         -1.812825   -4.615826    0.901788
C         -0.131975    2.725088    1.485736
C         -0.224416    4.235798    1.708552
H          0.729934    2.360206    2.045403
H         -1.030750    2.236614    1.879208
H         -0.510142    4.391861    2.754039
H          0.737572    4.732682    1.557789
H         -0.980523    4.731257    1.091713
C          1.270067    2.750003   -0.615916
C          1.224645    4.167077   -1.190903
H          1.492806    2.054623   -1.430887
H          2.077383    2.647158    0.118855
H          2.191642    4.356784   -1.668509
H          0.456652    4.275262   -1.963023
H          1.070774    4.943129   -0.439553
C          2.225426   -0.342848    0.063469
C          3.216495   -0.543001    1.042063
C          2.641067   -0.361368   -1.290758
C          4.564061   -0.741848    0.686333
H          2.977641   -0.553618    2.103009
C          3.982195   -0.556796   -1.653882
H          1.903059   -0.228937   -2.091602
C          4.954437   -0.746246   -0.658642
H          5.304947   -0.893030    1.467263
H          4.264915   -0.562407   -2.703152
H          5.995426   -0.898000   -0.928127
