61
TS_NCNPtPhMe_rotatePh; M06/LANL2TZ + 6-311G(2d,p); E(RM06) = -1125.44644299 A.U.; G(RM06) = -1124.967372 A.U.
Pt        -0.071191   -0.006744   -0.211701
C          1.898700    0.357722   -0.090601
C          2.758617   -0.713834    0.037700
C          2.321147    1.660887    0.080676
C          4.073298   -0.484124    0.415631
C          3.634643    1.898689    0.462471
C          4.496192    0.822109    0.638751
H          4.768324   -1.311195    0.535119
H          3.992062    2.913927    0.613899
H          5.521104    1.004766    0.944437
N         -0.098095    2.181567   -0.102664
N          0.691548   -2.069878   -0.030988
C          0.175350   -0.016924   -2.248351
H          0.672207   -0.943628   -2.532822
H          0.778998    0.832334   -2.564617
H         -0.841091    0.030326   -2.641887
C          2.164806   -2.018885   -0.355895
H          2.260804   -2.130817   -1.439843
H          2.667124   -2.880052    0.094105
C          1.316197    2.685803   -0.304070
H          1.422172    2.893639   -1.374216
H          1.447512    3.642819    0.203277
C         -0.953889    2.799578   -1.171282
C         -1.213223    4.283634   -1.058372
H         -1.894180    2.256917   -1.204779
H         -0.447906    2.585996   -2.114744
H         -1.762141    4.594205   -1.950507
H         -1.834082    4.532609   -0.194873
H         -0.294932    4.875074   -1.019335
C         -0.582525    2.468972    1.304578
C         -0.138820    3.760530    1.962645
H         -0.242760    1.660051    1.962739
H         -1.670463    2.400634    1.270889
H         -0.693649    3.847751    2.900250
H          0.922779    3.746138    2.221541
H         -0.345238    4.654382    1.374000
C          0.524382   -2.338812    1.439555
C          0.901659   -3.718507    1.930738
H         -0.522750   -2.140279    1.679837
H          1.123078   -1.580365    1.955222
H          0.750040   -3.735962    3.012441
H          0.268965   -4.499759    1.503835
H          1.948971   -3.969805    1.749131
C          0.015990   -3.120885   -0.879047
C          0.849849   -4.302421   -1.334769
H         -0.407607   -2.615650   -1.749688
H         -0.822513   -3.501224   -0.301087
H          0.169214   -5.001015   -1.827782
H          1.616242   -4.035730   -2.064133
H          1.324721   -4.838258   -0.511278
C         -2.233400   -0.391944    0.066088
C         -2.741710   -1.675455    0.321955
C         -3.221563    0.607210    0.108526
C         -4.081100   -1.950737    0.559330
H         -2.081951   -2.530307    0.358921
C         -4.567275    0.359630    0.341561
H         -2.973176    1.652624   -0.028741
C         -5.013923   -0.930201    0.562668
H         -4.390015   -2.975645    0.746812
H         -5.266920    1.191144    0.354765
H         -6.064631   -1.133638    0.744422
