61
TS_Ph-NCNPtMe_NCNPtMePh; M06/LANL2TZ + 6-311G(2d,p); E(RM06) = -1125.44654283 A.U.; G(RM06) = -1124.967572 A.U.
Pt        -0.038016   -0.183105   -0.708538
C         -0.003840    0.047773    1.306570
C          1.208958   -0.231972    1.909877
C         -1.235165   -0.236844    1.885246
C          1.190534   -0.743887    3.199321
C         -1.232733   -0.758378    3.169215
C         -0.026202   -0.978405    3.829278
H          2.123224   -0.989092    3.700956
H         -2.172405   -1.020116    3.649621
H         -0.036768   -1.382458    4.835621
N         -2.180577   -0.435717   -0.392363
N          2.089875   -0.693891   -0.319213
C         -0.050147   -1.275433   -2.499898
H          0.890039   -1.116671   -3.038037
H         -0.874229   -0.948075   -3.142349
H         -0.167382   -2.348956   -2.320541
C          2.396640   -0.069031    1.020464
H          2.599599    0.992243    0.850479
H          3.299615   -0.509851    1.449118
C         -2.444916   -0.016321    1.027983
H         -2.720672    1.039667    0.990373
H         -3.316812   -0.539651    1.423847
C         -2.971328    0.391901   -1.355250
C         -4.477701    0.312871   -1.258935
H         -2.642443    0.096692   -2.354823
H         -2.634628    1.422152   -1.200161
H         -4.900168    1.069758   -1.924124
H         -4.864950   -0.654995   -1.582965
H         -4.847036    0.523054   -0.251511
C         -2.418960   -1.918958   -0.558078
C         -3.610372   -2.531322    0.151336
H         -1.521170   -2.429538   -0.198478
H         -2.475960   -2.093724   -1.634612
H         -3.716409   -3.554691   -0.217393
H         -3.454860   -2.599239    1.231366
H         -4.553825   -2.016564   -0.031958
C          2.037580   -2.191409   -0.159282
C          3.326304   -2.873992    0.242940
H          1.690534   -2.590726   -1.113699
H          1.261633   -2.406225    0.581085
H          3.121150   -3.943647    0.330421
H          4.116771   -2.757315   -0.501678
H          3.702565   -2.540856    1.213566
C          3.084755   -0.331611   -1.389221
C          4.475418    0.052607   -0.932281
H          2.665677    0.482895   -1.982605
H          3.133159   -1.191251   -2.062632
H          5.089546    0.209035   -1.822290
H          4.483193    0.987681   -0.367287
H          4.960193   -0.717909   -0.330004
C          0.087764    1.789538    0.221279
C         -0.710754    2.610177    1.019120
C          1.061426    2.421139   -0.560884
C         -0.583026    3.989821    0.984483
H         -1.416658    2.201929    1.728037
C          1.185121    3.802292   -0.594676
H          1.722587    1.851198   -1.201467
C          0.358092    4.598430    0.174293
H         -1.224493    4.587449    1.624334
H          1.940590    4.244901   -1.235996
H          0.456292    5.678465    0.155364
