39
TS_ZPtMeH_ZPtMeHsigma.log	Energy: -520404.6083320
Pt        -0.90562       -0.00003       -0.06808
C          1.72767        1.17889       -0.26534
C          1.72771       -1.17881       -0.26535
C          3.06036        1.22988       -0.02575
C          3.06040       -1.22978       -0.02577
C          3.82776        0.00006        0.10281
H          3.57681        2.17442        0.07101
H          3.57687       -2.17431        0.07098
O          5.04693        0.00008        0.31819
N          1.08611        0.00003       -0.40054
C          0.79520        2.33760       -0.49897
H          0.68711        2.47093       -1.57502
H          1.16976        3.26886       -0.07720
C          0.79527       -2.33756       -0.49900
H          0.68715       -2.47085       -1.57504
H          1.16988       -3.26881       -0.07727
N         -0.59361        2.07889        0.04501
N         -0.59353       -2.07891        0.04503
C         -2.95208        0.00014        0.27352
H         -3.11250        0.00030        1.35585
H         -3.44355        0.87832       -0.14214
H         -3.44373       -0.87808       -0.14187
C         -1.54767        2.94786       -0.67960
H         -2.53235        2.85383       -0.23351
H         -1.21782        3.98457       -0.60498
H         -1.58726        2.65207       -1.72354
C         -0.63326        2.42071        1.49322
H         -0.38777        3.47411        1.62491
H         -1.63044        2.22932        1.87943
H          0.09496        1.81653        2.03315
C         -1.54763       -2.94777       -0.67969
H         -1.21788       -3.98451       -0.60514
H         -2.53233       -2.85366       -0.23364
H         -1.58715       -2.65190       -1.72361
C         -0.63317       -2.42093        1.49321
H         -1.63029       -2.22942        1.87949
H         -0.38787       -3.47441        1.62471
H          0.09519       -1.81699        2.03322
H         -1.45979       -0.00010       -1.46120
