39
YIrMeH.log	Energy: -453804.1732930
C          1.90229        1.21276       -0.09318
C          1.90283       -1.21192       -0.09324
C          3.26536        1.21540        0.16429
C          3.26590       -1.21398        0.16423
C          3.93836        0.00086        0.30507
H          3.81510        2.14611        0.24993
H          3.81605       -2.14445        0.24982
C          1.02483        2.39527       -0.40477
H          1.02106        2.54997       -1.48522
H          1.35793        3.32724        0.05960
C          1.02588       -2.39479       -0.40487
H          1.02213       -2.54943       -1.48533
H          1.35943       -3.32664        0.05943
N         -0.40549        2.12605       -0.00964
N         -0.40451       -2.12620       -0.00963
C         -2.68858       -0.00073        0.81123
H         -2.48027       -0.00074        1.89437
H         -3.31577        0.88176        0.63475
H         -3.31529       -0.88354        0.63464
C         -1.29999        2.95809       -0.82984
H         -2.32536        2.79981       -0.50511
H         -1.04683        4.01810       -0.72520
H         -1.20838        2.66514       -1.87265
C         -0.57235        2.51188        1.40655
H         -0.36988        3.57910        1.53466
H         -1.58872        2.29560        1.72357
H          0.12341        1.94205        2.01965
C         -1.29872       -2.95863       -0.82975
H         -1.04510       -4.01852       -0.72514
H         -2.32413       -2.80080       -0.50493
H         -1.20734       -2.66562       -1.87257
C         -0.57107       -2.51200        1.40660
H         -1.58750       -2.29606        1.72367
H         -0.36820       -3.57912        1.53477
H          0.12450       -1.94186        2.01961
H         -0.27867       -0.00014       -1.64992
Ir        -0.73033       -0.00017       -0.16149
H          5.00026        0.00108        0.51386
C          1.22641        0.00027       -0.17845
