34
YRh.log	Energy: -432256.5851672
C         -1.54712       -0.12332        1.21104
C         -1.54712       -0.12332       -1.21104
C         -2.92858        0.00311        1.21117
C         -2.92858        0.00311       -1.21117
C         -3.61549        0.08446        0.00000
H         -3.48116        0.02977        2.14428
H         -3.48116        0.02977       -2.14428
C         -0.67852       -0.37724        2.41221
H         -0.65891       -1.45129        2.60587
H         -1.04015        0.10950        3.32510
C         -0.67852       -0.37724       -2.41221
H         -0.65891       -1.45129       -2.60587
H         -1.04015        0.10950       -3.32510
N          0.73120        0.03735        2.13645
N          0.73120        0.03735       -2.13645
C          1.65270       -0.75488        2.95753
H          2.67312       -0.42263        2.77211
H          1.43468       -0.63960        4.02681
H          1.57041       -1.80470        2.68515
C          0.88207        1.45928        2.48913
H          0.73036        1.60636        3.56632
H          1.87951        1.80237        2.22215
H          0.15109        2.04920        1.94181
C          1.65270       -0.75488       -2.95753
H          1.43468       -0.63960       -4.02681
H          2.67312       -0.42263       -2.77211
H          1.57041       -1.80470       -2.68515
C          0.88207        1.45928       -2.48913
H          1.87951        1.80237       -2.22215
H          0.73036        1.60636       -3.56632
H          0.15109        2.04920       -1.94181
C         -0.85059       -0.14232        0.00000
H         -4.69236        0.19351        0.00000
Rh         1.02594       -0.12024       -0.00000
