39
YRhMeH.log	Energy: -457674.6326817
C         -1.21188        1.74664       -0.12134
C          1.21188        1.74664       -0.12134
C         -1.21391        3.10592        0.16008
C          1.21390        3.10592        0.16008
C         -0.00000        3.77599        0.30881
H         -2.14510        3.65194        0.26001
H          2.14510        3.65194        0.26001
C         -2.40004        0.87618       -0.42675
H         -2.56517        0.88006       -1.50566
H         -3.32559        1.21589        0.04755
C          2.40004        0.87618       -0.42675
H          2.56517        0.88006       -1.50566
H          3.32559        1.21589        0.04755
N         -2.12649       -0.54652       -0.03824
N          2.12649       -0.54652       -0.03824
C          0.00000       -2.85172        0.69042
H          0.00000       -2.69755        1.78095
H         -0.88316       -3.46527        0.47392
H          0.88316       -3.46527        0.47392
C         -2.96139       -1.44814       -0.84237
H         -2.78568       -2.47241       -0.52352
H         -4.02369       -1.20986       -0.71934
H         -2.68983       -1.35312       -1.89097
C         -2.46812       -0.71851        1.38512
H         -3.53252       -0.52018        1.54827
H         -2.23835       -1.73476        1.69285
H         -1.88263       -0.02385        1.98473
C          2.96139       -1.44814       -0.84237
H          4.02369       -1.20986       -0.71934
H          2.78568       -2.47241       -0.52352
H          2.68983       -1.35312       -1.89097
C          2.46812       -0.71851        1.38512
H          2.23835       -1.73476        1.69285
H          3.53252       -0.52018        1.54827
H          1.88263       -0.02385        1.98473
H          0.00000       -0.29222       -1.62675
H         -0.00000        4.83441        0.53449
C         -0.00000        1.07846       -0.22253
Rh         0.00000       -0.86426       -0.20902
