39
ZHIrMe.log	Energy: -511110.5246429
C         -1.72432       -1.16880       -0.28116
C         -1.72431        1.16884       -0.28106
C         -3.06007       -1.22080       -0.01217
C         -3.06006        1.22082       -0.01205
C         -3.82217        0.00001        0.14428
H         -3.57128       -2.16841        0.09345
H         -3.57127        2.16843        0.09366
O         -5.04409       -0.00000        0.40346
N         -1.07865        0.00003       -0.41150
C         -0.80315       -2.33597       -0.53756
H         -0.69291       -2.43531       -1.61779
H         -1.20780       -3.27360       -0.15335
C         -0.80316        2.33603       -0.53741
H         -0.69302        2.43547       -1.61764
H         -1.20776        3.27363       -0.15308
N          0.57681       -2.11235        0.01915
N          0.57687        2.11237        0.01915
C          2.94991       -0.00013        0.54023
H          2.99748       -0.00126        1.64161
H          3.52935       -0.87432        0.21699
H          3.52891        0.87503        0.21881
C          1.52588       -2.97491       -0.70629
H          2.51440       -2.85598       -0.27170
H          1.22298       -4.02348       -0.63597
H          1.55857       -2.67355       -1.74969
C          0.58150       -2.49803        1.44773
H          0.32609       -3.55447        1.55904
H          1.57015       -2.31768        1.86256
H         -0.15066       -1.90094        1.99065
C          1.52586        2.97490       -0.70644
H          1.22297        4.02347       -0.63613
H          2.51443        2.85598       -0.27196
H          1.55843        2.67349       -1.74983
C          0.58174        2.49808        1.44771
H          1.57042        2.31764        1.86244
H          0.32645        3.55455        1.55903
H         -0.15041        1.90107        1.99072
H          1.42626        0.00006       -1.53257
Ir         0.93766       -0.00001       -0.08246
