39
ZHRhMe.log	Energy: -514959.9162339
C          1.46367        1.19651       -0.60309
C          1.46367       -1.19651       -0.60309
C          2.65257        1.22801        0.03258
C          2.65257       -1.22801        0.03258
C          3.38473        0.00000        0.31644
H          3.05823        2.16522        0.38623
H          3.05823       -2.16521        0.38623
O          4.50548        0.00000        0.83044
N          0.95551        0.00000       -1.02713
C          0.52209        2.34835       -0.82058
H          0.25453        2.39864       -1.87650
H          0.99849        3.29224       -0.54741
C          0.52209       -2.34835       -0.82058
H          0.25453       -2.39864       -1.87650
H          0.99849       -3.29224       -0.54741
N         -0.73358        2.14399       -0.04117
N         -0.73357       -2.14399       -0.04117
C         -2.86795       -0.00000        0.90453
H         -2.70166       -0.00001        1.99290
H         -3.48358        0.88043        0.68177
H         -3.48358       -0.88043        0.68175
C         -1.80478        2.95210       -0.64002
H         -2.70960        2.83104       -0.05095
H         -1.53095        4.01319       -0.65948
H         -1.99793        2.60616       -1.65261
C         -0.52412        2.57867        1.35003
H         -0.30508        3.65221        1.39095
H         -1.42395        2.37077        1.92331
H          0.30471        2.02647        1.78716
C         -1.80478       -2.95210       -0.64002
H         -1.53095       -4.01320       -0.65948
H         -2.70960       -2.83104       -0.05095
H         -1.99793       -2.60616       -1.65261
C         -0.52411       -2.57867        1.35003
H         -1.42395       -2.37077        1.92331
H         -0.30508       -3.65221        1.39095
H          0.30471       -2.02647        1.78716
H          0.06744        0.00000       -1.59437
Rh        -1.04382       -0.00000       -0.02652
