34
ZIr.log	Energy: -485662.0668718
C         -0.19145        1.53169        1.17078
C         -0.19145        1.53169       -1.17078
C         -0.06016        2.88836        1.21408
C         -0.06016        2.88836       -1.21408
C          0.04190        3.66283       -0.00000
H         -0.04661        3.40557        2.16436
H         -0.04661        3.40557       -2.16436
O          0.18554        4.90542       -0.00000
N         -0.21518        0.86479       -0.00000
C         -0.45747        0.62841        2.34451
H         -1.53984        0.55604        2.45716
H         -0.05089        1.03306        3.27349
C         -0.45747        0.62841       -2.34451
H         -1.53984        0.55604       -2.45716
H         -0.05089        1.03306       -3.27349
N          0.05418       -0.75709        2.11012
N          0.05418       -0.75709       -2.11012
C         -0.72824       -1.70545        2.92068
H         -0.32668       -2.70660        2.77661
H         -0.67331       -1.44967        3.98395
H         -1.76484       -1.68871        2.59380
C          1.46673       -0.81629        2.54366
H          1.53883       -0.62883        3.62016
H          1.87431       -1.79934        2.32161
H          2.04407       -0.06674        2.00840
C         -0.72824       -1.70545       -2.92068
H         -0.67331       -1.44967       -3.98395
H         -0.32668       -2.70660       -2.77661
H         -1.76484       -1.68871       -2.59380
C          1.46673       -0.81629       -2.54366
H          1.87431       -1.79934       -2.32161
H          1.53883       -0.62883       -3.62016
H          2.04407       -0.06674       -2.00840
Ir        -0.04482       -1.04292        0.00000
