39
ZIrMeH.log	Energy: -511110.5246761
C         -1.72432       -1.16882       -0.28111
C         -1.72432        1.16882       -0.28111
C         -3.06006       -1.22081       -0.01210
C         -3.06006        1.22081       -0.01210
C         -3.82219       -0.00000        0.14428
H         -3.57126       -2.16843        0.09354
H         -3.57126        2.16843        0.09354
O         -5.04414       -0.00000        0.40330
N         -1.07865       -0.00000       -0.41153
C         -0.80315       -2.33600       -0.53746
H         -0.69295       -2.43541       -1.61769
H         -1.20780       -3.27360       -0.15318
C         -0.80315        2.33600       -0.53747
H         -0.69295        2.43541       -1.61769
H         -1.20780        3.27360       -0.15318
N          0.57682       -2.11235        0.01924
N          0.57682        2.11235        0.01924
C          2.95000        0.00000        0.53994
H          2.99785        0.00000        1.64129
H          3.52914       -0.87468        0.21746
H          3.52914        0.87467        0.21746
C          1.52587       -2.97505       -0.70605
H          2.51438       -2.85612       -0.27145
H          1.22292       -4.02360       -0.63559
H          1.55861       -2.67384       -1.74949
C          0.58152       -2.49777        1.44789
H          0.32599       -3.55417        1.55940
H          1.57020       -2.31745        1.86266
H         -0.15056       -1.90052        1.99074
C          1.52587        2.97505       -0.70605
H          1.22292        4.02360       -0.63559
H          2.51438        2.85612       -0.27144
H          1.55861        2.67384       -1.74949
C          0.58152        2.49777        1.44789
H          1.57019        2.31745        1.86266
H          0.32599        3.55417        1.55940
H         -0.15056        1.90052        1.99074
H          1.42637        0.00000       -1.53262
Ir         0.93768        0.00000       -0.08254
