34
ZPt.log	Energy: -494993.1937312
Pt        -1.00348        0.00000       -0.01747
C          1.53345        1.18496       -0.23167
C          1.53345       -1.18496       -0.23167
C          2.87722        1.22511       -0.06495
C          2.87722       -1.22511       -0.06495
C          3.64844        0.00000        0.05421
H          3.39749        2.17189       -0.03138
H          3.39749       -2.17189       -0.03138
O          4.87390        0.00000        0.23134
N          0.88178        0.00000       -0.29661
C          0.61679        2.34711       -0.48803
H          0.53084        2.46894       -1.56767
H          1.00044        3.27741       -0.07142
C          0.61679       -2.34711       -0.48803
H          0.53084       -2.46894       -1.56767
H          1.00044       -3.27741       -0.07142
N         -0.76079        2.07778        0.04388
N         -0.76079       -2.07778        0.04388
C         -1.76285        2.80856       -0.75931
H         -2.74855        2.64860       -0.32888
H         -1.54210        3.87788       -0.75259
H         -1.74721        2.43937       -1.78126
C         -0.83231        2.52815        1.45345
H         -0.71210        3.61218        1.49820
H         -1.79734        2.25631        1.87380
H         -0.04132        2.05319        2.02840
C         -1.76285       -2.80856       -0.75931
H         -1.54210       -3.87788       -0.75259
H         -2.74855       -2.64860       -0.32888
H         -1.74721       -2.43937       -1.78126
C         -0.83231       -2.52815        1.45345
H         -1.79734       -2.25631        1.87380
H         -0.71210       -3.61218        1.49820
H         -0.04132       -2.05319        2.02840
