39
ZPtMeH_sigma.log	Energy: -520424.9710180
Pt        -0.85762        0.00003       -0.09773
C          1.71563        1.18213       -0.22136
C          1.71554       -1.18224       -0.22123
C          3.05229        1.22514       -0.00814
C          3.05221       -1.22531       -0.00801
C          3.82043       -0.00011        0.13131
H          3.57009        2.17201        0.04983
H          3.56993       -2.17223        0.05006
O          5.03972       -0.00014        0.34457
N          1.06295       -0.00004       -0.31520
C          0.80606        2.34334       -0.49532
H          0.72963        2.45990       -1.57629
H          1.18285        3.27652       -0.07838
C          0.80594       -2.34344       -0.49511
H          0.72964       -2.46018       -1.57607
H          1.18263       -3.27656       -0.07796
N         -0.58077        2.08142        0.02158
N         -0.58096       -2.08139        0.02157
C         -3.25678        0.00014        0.43755
H         -2.71151        0.00020        1.38096
H         -3.86657        0.89628        0.38367
H         -3.86654       -0.89604        0.38382
C         -1.54323        2.89739       -0.74882
H         -2.53588        2.78085       -0.32294
H         -1.25890        3.94980       -0.70084
H         -1.55046        2.56731       -1.78389
C         -0.64072        2.47314        1.45307
H         -0.45657        3.54461        1.54384
H         -1.62441        2.24609        1.85482
H          0.11508        1.92820        2.01291
C         -1.54338       -2.89721       -0.74907
H         -1.25915       -3.94965       -0.70114
H         -2.53609       -2.78063       -0.32333
H         -1.55042       -2.56703       -1.78411
C         -0.64123       -2.47320        1.45301
H         -1.62499       -2.24614        1.85457
H         -0.45716       -3.54469        1.54374
H          0.11447       -1.92835        2.01304
H         -2.68452        0.00002       -0.54307
