42
ZPtMeMe_sigma.log	Energy: -545094.2639944
Pt         0.68612       -0.05093        0.03166
C         -1.91492       -1.11736       -0.30079
C         -1.82428        1.24381       -0.23967
C         -3.26557       -1.11032       -0.20324
C         -3.17187        1.33576       -0.13705
C         -3.99564        0.14086       -0.09270
H         -3.82227       -2.03661       -0.21982
H         -3.65481        2.30220       -0.10493
O         -5.22785        0.18453        0.01733
N         -1.21155        0.03976       -0.30162
C         -1.03188       -2.30695       -0.53349
H         -0.86102       -2.39474       -1.60635
H         -1.47985       -3.23558       -0.18266
C         -0.85959        2.37354       -0.43748
H         -0.73588        2.51615       -1.51080
H         -1.21954        3.30961       -0.01264
N          0.30741       -2.11361        0.11551
N          0.49556        2.05015        0.12634
C          3.36864        0.03153        0.40567
H          2.41883       -0.58141        0.45865
H          3.96996       -0.57032        1.08722
H          3.24505        1.00613        0.86547
C          1.30419       -2.97042       -0.56212
H          2.25280       -2.90354       -0.03493
H          0.96809       -4.00861       -0.55404
H          1.43297       -2.63506       -1.58766
C          0.21156       -2.51125        1.54236
H         -0.02014       -3.57567        1.60806
H          1.15888       -2.31886        2.03857
H         -0.57483       -1.94066        2.02957
C          1.50634        2.82500       -0.62480
H          1.25438        3.88643       -0.59595
H          2.48415        2.68743       -0.17378
H          1.52921        2.48463       -1.65641
C          0.52828        2.45112        1.55420
H          1.48072        2.16732        1.99314
H          0.40399        3.53234        1.63277
H         -0.27636        1.95407        2.09033
C          3.95561        0.07467       -0.99123
H          4.01227       -0.92392       -1.42119
H          3.36823        0.69949       -1.66102
H          4.96526        0.48133       -0.94933
