38
ZPtMe.log	Energy: -520149.5740354
Pt         0.92058       -0.00000       -0.07291
C         -1.72124       -1.16967       -0.24480
C         -1.72124        1.16967       -0.24481
C         -3.06595       -1.22213       -0.02956
C         -3.06595        1.22213       -0.02957
C         -3.83294        0.00000        0.09651
H         -3.58299       -2.16924        0.04695
H         -3.58299        2.16924        0.04693
O         -5.06458        0.00000        0.29978
N         -1.07553       -0.00000       -0.34638
C         -0.79236       -2.33274       -0.49278
H         -0.70132       -2.45566       -1.57226
H         -1.17588       -3.26700       -0.08038
C         -0.79235        2.33274       -0.49280
H         -0.70130        2.45564       -1.57228
H         -1.17588        3.26700       -0.08042
N          0.59523       -2.08225        0.03687
N          0.59523        2.08225        0.03688
C          2.96733        0.00002        0.25966
H          3.52083        0.00014       -0.68805
H          3.31294        0.87645        0.82125
H          3.31300       -0.87650        0.82107
C          1.55172       -2.91718       -0.71338
H          2.54551       -2.77830       -0.29698
H          1.27290       -3.97178       -0.64095
H          1.55670       -2.61152       -1.75623
C          0.63350       -2.47256        1.46432
H          0.43706       -3.54370        1.56089
H          1.61332       -2.24535        1.87460
H         -0.12230       -1.91725        2.01440
C          1.55173        2.91718       -0.71336
H          1.27291        3.97178       -0.64092
H          2.54551        2.77829       -0.29695
H          1.55672        2.61153       -1.75621
C          0.63347        2.47255        1.46432
H          1.61328        2.24535        1.87461
H          0.43702        3.54369        1.56089
H         -0.12233        1.91724        2.01439
