%nprocshared=8
%chk=HZIrMe.chk
%mem=1GB
# wb97xd def2TZVPP SCRF=(solvent=dichloromethane) opt freq

HZIrMe

0 1
C          1.67777        1.16934       -0.24472
C          1.66431       -1.19470       -0.24121
C          3.05277        1.19378       -0.03597
C          3.03511       -1.24336       -0.03214
C          3.73958       -0.02907        0.09117
H          3.59441        2.14592        0.01704
H          3.57521       -2.19245        0.02624
O          5.08479       -0.10182        0.31134
N          0.99855       -0.00722       -0.29701
C          0.75191        2.32399       -0.55429
H          0.61496        2.35805       -1.65264
H          1.14698        3.30559       -0.21684
C          0.72182       -2.33660       -0.54986
H          0.58805       -2.37008       -1.64847
H          1.10347       -3.32220       -0.21010
N         -0.62202        2.08828        0.02184
N         -0.65021       -2.08153        0.02253
C         -1.60116        2.92530       -0.70680
H         -2.59050        2.77414       -0.24967
H         -1.32031        4.00063       -0.64812
H         -1.63361        2.59482       -1.75591
C         -0.61199        2.49627        1.44943
H         -0.42526        3.59100        1.52996
H         -1.58424        2.24206        1.89602
H          0.18060        1.93885        1.97262
C         -1.63885       -2.90518       -0.70875
H         -1.37231       -3.98401       -0.64965
H         -2.62720       -2.74106       -0.25398
H         -1.66428       -2.57420       -1.75788
C         -0.64907       -2.49070        1.45005
H         -1.61876       -2.22356        1.89462
H         -0.47745       -3.58773        1.52993
H          0.15026       -1.94514        1.97542
Ir        -0.94140        0.00493       -0.08099
H          5.43480        0.79857        0.37001
C         -2.98482        0.01836        0.40109
H         -3.33918        0.90306        0.98415
H         -3.60283        0.02353       -0.52964
H         -3.35191       -0.86188        0.98281

