%nprocshared=8
%chk=HZIrMeH_sigma.chk
%mem=2GB
# wb97xd def2TZVPP SCRF=(solvent=dichloromethane) opt freq

HZIrMeH_sigma

1 1
C       -1.71027000      -1.18235000      -0.25687000
C       -1.71056000       1.18205000      -0.25714000
C       -3.05511000      -1.23139000       0.00696000
C       -3.05542000       1.23082000       0.00667000
C       -3.83759000      -0.00036000       0.18182000
H       -3.58026000      -2.18937000       0.07432000
H       -3.58079000       2.18869000       0.07379000
O       -5.05115000      -0.00048000       0.43818000
N       -1.03743000      -0.00008000      -0.37010000
C       -0.78693000      -2.33205000      -0.58637000
H       -0.65546000      -2.36489000      -1.68412000
H       -1.17157000      -3.31336000      -0.24405000
C       -0.78740000       2.33186000      -0.58672000
H       -0.65565000       2.36447000      -1.68444000
H       -1.17229000       3.31317000      -0.24469000
N        0.58937000      -2.09113000      -0.01149000
N        0.58879000       2.09125000      -0.01144000
C        3.14721000       0.00016000       0.66189000
H        2.54823000       0.00135000       1.58850000
H        3.78151000      -0.89957000       0.63792000
H        3.78266000       0.89904000       0.63630000
C        1.56590000      -2.92678000      -0.74467000
H        2.55611000      -2.80627000      -0.27704000
H        1.27125000      -3.99695000      -0.70217000
H        1.61099000      -2.58664000      -1.78977000
C        0.57771000      -2.51130000       1.41429000
H        0.38028000      -3.60243000       1.48443000
H        1.55665000      -2.28260000       1.86498000
H       -0.20940000      -1.95374000       1.94464000
C        1.56542000       2.92707000      -0.74428000
H        1.27071000       3.99722000      -0.70171000
H        2.55552000       2.80653000      -0.27641000
H        1.61079000       2.58707000      -1.78940000
C        0.57657000       2.51143000       1.41433000
H        1.55550000       2.28320000       1.86528000
H        0.37866000       3.60248000       1.48440000
H       -0.21043000       1.95354000       1.94450000
H        2.62738000      -0.00003000      -0.42150000
Ir       0.88619000       0.00010000      -0.09867000
H       -5.05115000       0.99952000       0.43818000

