%nprocshared=8
%chk=HZPtMeH.chk
%mem=2GB
# wb97xd def2TZVPP SCRF=(solvent=dichloromethane) opt freq

HZPtMeH

2 1
Pt      -0.90514000       0.00001000      -0.11853000
C        1.70073000       1.20296000      -0.29982000
C        1.70072000      -1.20297000      -0.29981000
C        3.02406000       1.25088000       0.00751000
C        3.02406000      -1.25089000       0.00752000
C        3.79103000      -0.00001000       0.21409000
H        3.56250000       2.19872000       0.09202000
H        3.56249000      -2.19874000       0.09204000
O        4.97741000      -0.00001000       0.52352000
N        1.03537000      -0.00001000      -0.42231000
C        0.76070000       2.32837000      -0.65663000
H        0.60673000       2.32956000      -1.75136000
H        1.12221000       3.32440000      -0.34499000
C        0.76069000      -2.32838000      -0.65661000
H        0.60673000      -2.32958000      -1.75134000
H        1.12219000      -3.32441000      -0.34496000
N       -0.60571000       2.08398000      -0.03534000
N       -0.60572000      -2.08398000      -0.03534000
C       -2.63302000       0.00001000       1.08260000
H       -2.17236000       0.00014000       2.08850000
H       -3.26747000       0.89187000       0.96792000
H       -3.26735000      -0.89197000       0.96810000
C       -1.62196000       2.90850000      -0.74205000
H       -2.59507000       2.78195000      -0.24552000
H       -1.32315000       3.97208000      -0.69984000
H       -1.68954000       2.57948000      -1.78907000
C       -0.54238000       2.49493000       1.39959000
H       -0.29882000       3.57149000       1.45285000
H       -1.51507000       2.31695000       1.87797000
H        0.24547000       1.91526000       1.90710000
C       -1.62197000      -2.90849000      -0.74207000
H       -1.32317000      -3.97207000      -0.69987000
H       -2.59509000      -2.78194000      -0.24555000
H       -1.68953000      -2.57946000      -1.78909000
C       -0.54242000      -2.49494000       1.39958000
H       -1.51513000      -2.31702000       1.87794000
H       -0.29882000      -3.57149000       1.45284000
H        0.24538000      -1.91525000       1.90713000
H       -0.99867400       0.12215906      -1.67754743
H        4.97741000       0.99999000       0.52352000

