%nprocshared=8
%chk=HZPt.chk
%mem=2GB
# wb97xd def2TZVPP SCRF=(solvent=dichloromethane) opt freq

HZPt

2 1
Pt       0.96509000       0.00000000       0.00996000
C       -1.47733000      -1.20430000      -0.43220000
C       -1.47733000       1.20430000      -0.43219000
C       -2.78858000      -1.24656000      -0.07812000
C       -2.78858000       1.24656000      -0.07811000
C       -3.56262000       0.00000000       0.10719000
H       -3.31273000      -2.19867000       0.04598000
H       -3.31273000       2.19867000       0.04598000
O       -4.75018000       0.00000000       0.41034000
N       -0.84061000       0.00000000      -0.70675000
C       -0.52902000      -2.34940000      -0.68047000
H       -0.27828000      -2.38399000      -1.75581000
H       -0.93664000      -3.32705000      -0.36792000
C       -0.52902000       2.34940000      -0.68047000
H       -0.27828000       2.38399000      -1.75581000
H       -0.93664000       3.32705000      -0.36792000
N        0.75921000      -2.07152000       0.06061000
N        0.75921000       2.07152000       0.06061000
C        1.87822000      -2.82890000      -0.55789000
H        2.79562000      -2.64824000       0.02396000
H        1.64921000      -3.91122000      -0.54457000
H        2.01788000      -2.48858000      -1.59415000
C        0.59592000      -2.49520000       1.48300000
H        0.45333000      -3.59155000       1.52285000
H        1.49765000      -2.22196000       2.05093000
H       -0.28365000      -1.98988000       1.91087000
C        1.87823000       2.82890000      -0.55789000
H        1.64921000       3.91122000      -0.54457000
H        2.79562000       2.64824000       0.02396000
H        2.01788000       2.48858000      -1.59415000
C        0.59592000       2.49520000       1.48300000
H        1.49765000       2.22196000       2.05093000
H        0.45333000       3.59155000       1.52285000
H       -0.28364000       1.98988000       1.91087000
H       -4.75018000       1.00000000       0.41034000

