%nprocshared=8
%chk=HZRhMe.chk
%mem=1GB
# wb97xd def2TZVPP SCRF=(solvent=dichloromethane) opt freq

HZRhMe

0 1
C          1.49080        1.16390       -0.28398
C          1.47479       -1.19120       -0.28035
C          2.86109        1.19158       -0.04082
C          2.84095       -1.24592       -0.03714
C          3.54415       -0.03227        0.09581
H          3.39953        2.14377        0.03659
H          3.37564       -2.19615        0.04562
O          4.88137       -0.10565        0.34539
N          0.81681       -0.00747       -0.36689
C          0.57323        2.33147       -0.57537
H          0.43390        2.38231       -1.67265
H          0.98672        3.30451       -0.22934
C          0.53748       -2.34342       -0.57148
H          0.40021       -2.39246       -1.66901
H          0.93494       -3.32203       -0.22400
N         -0.78836        2.10205        0.00903
N         -0.82159       -2.09146        0.01000
C         -1.76971        2.96399       -0.67735
H         -2.75622        2.80210       -0.21757
H         -1.48744        4.03803       -0.58459
H         -1.81579        2.67561       -1.73864
C         -0.75512        2.45540        1.44612
H         -0.54473        3.54388        1.56787
H         -1.72673        2.20623        1.89690
H          0.03159        1.86561        1.94264
C         -1.81535       -2.93746       -0.67863
H         -1.55014       -4.01569       -0.58571
H         -2.80008       -2.76017       -0.22074
H         -1.85470       -2.64815       -1.73993
C         -0.79656       -2.44658        1.44706
H         -1.76452       -2.18154        1.89663
H         -0.60454       -3.53830        1.56797
H         -0.00038       -1.87109        1.94520
H          5.23240        0.79412        0.41107
C         -3.14634        0.02263        0.39180
H         -3.48191        0.91068        0.97830
H         -3.76260        0.02807       -0.53873
H         -3.49639       -0.86014        0.97757
Rh        -1.13076        0.00714       -0.12417

