%nprocshared=48
%chk=QST2_HZPtMeH_sigma_HZPtMeH.chk
%mem=64GB
# wb97xd def2TZVPP SCRF=(solvent=dichloromethane) opt=qst2 freq

ts_xyz/HZPtMeH_sigma.xyz

2 1
Pt         0.88328        0.00344       -0.09932
C         -1.68762       -1.18751       -0.12240
C         -1.69874        1.16600       -0.12151
C         -3.05012       -1.23012       -0.00424
C         -3.06454        1.19499       -0.00466
C         -3.75222       -0.02141        0.06710
H         -3.58237       -2.16863        0.01402
H         -3.59187        2.13757        0.01206
O         -5.07031       -0.09739        0.18140
N         -1.05340       -0.00601       -0.14384
C         -0.78642       -2.35632       -0.38558
H         -0.78759       -2.52054       -1.46326
H         -1.14220       -3.26839        0.09144
C         -0.81144        2.34662       -0.38030
H         -0.81848        2.51705       -1.45701
H         -1.17627        3.25183        0.10307
N          0.62826       -2.07932        0.03118
N          0.60779        2.08345        0.03054
C          3.27528        0.01507        0.30568
H          2.80238        0.00865        1.28856
H          3.88467       -0.87720        0.20400
H          3.87463        0.91490        0.21075
C          1.53930       -2.88121       -0.81843
H          2.55685       -2.76839       -0.45648
H          1.26087       -3.93445       -0.76818
H          1.47541       -2.53232       -1.84558
C          0.79637       -2.48292        1.45287
H          0.62782       -3.55625        1.54636
H          1.80562       -2.25134        1.78037
H          0.08114       -1.94925        2.07356
C          1.50835        2.89161       -0.82446
H          1.22278        3.94288       -0.77318
H          2.52853        2.78621       -0.46770
H          1.44156        2.54175       -1.85110
C          0.77939        2.49150        1.45044
H          1.79306        2.27178        1.77232
H          0.59957        3.56310        1.54293
H          0.07407        1.95074        2.07624
H          2.65309        0.01524       -0.65229
H         -5.48048        0.77146        0.20266

ts_xyz/HZPtMeH.xyz

2 1
Pt        -0.94784        0.00374       -0.08389
C          1.72236        1.16598       -0.17844
C          1.71175       -1.18596       -0.18760
C          3.08619        1.20187       -0.02624
C          3.07214       -1.23639       -0.03434
C          3.76733       -0.02108        0.04954
H          3.61907        2.14001        0.02858
H          3.60990       -2.17068        0.01635
O          5.08288       -0.09620        0.20133
N          1.09656       -0.00524       -0.24769
C          0.80260        2.33959       -0.39840
H          0.76786        2.52029       -1.47272
H          1.16644        3.24678        0.08127
C          0.77687       -2.34539       -0.41757
H          0.72662       -2.50808       -1.49428
H          1.13514       -3.26418        0.04363
N         -0.61770        2.08101        0.05397
N         -0.63429       -2.07636        0.05555
C         -2.98711        0.00625        0.19551
H         -3.14988       -0.06578        1.27505
H         -3.45599        0.91921       -0.16554
H         -3.47614       -0.83683       -0.28833
C         -1.51767        2.96263       -0.72801
H         -2.53033        2.86517       -0.35217
H         -1.19309        3.99699       -0.61589
H         -1.48461        2.67822       -1.77512
C         -0.74361        2.42019        1.50158
H         -0.51549        3.47560        1.64491
H         -1.75988        2.22083        1.82916
H         -0.04051        1.82229        2.08037
C         -1.55359       -2.95447       -0.70725
H         -1.23469       -3.99083       -0.59601
H         -2.55901       -2.84616       -0.31467
H         -1.53562       -2.67573       -1.75619
C         -0.73758       -2.41019        1.50603
H         -1.74838       -2.21155        1.84969
H         -0.50569       -3.46457        1.65004
H         -0.02647       -1.80844        2.07095
H         -1.33983        0.00777       -1.53281
H          5.48878        0.77369        0.24530

