%nprocshared=48
%chk=QST2_HZIrMeH_sigma_HZIrMeH.chk
%mem=64GB
# wb97xd def2TZVPP SCRF=(solvent=dichloromethane) opt=qst2 freq

ts_xyz/HZIrMeH_sigma.xyz

1 1
C         -1.67770       -1.18302       -0.15767
C         -1.69305        1.15530       -0.15910
C         -3.04261       -1.23091       -0.01265
C         -3.06137        1.18348       -0.01531
C         -3.74522       -0.02873        0.07647
H         -3.56987       -2.17262        0.02143
H         -3.59006        2.12608        0.01529
O         -5.07305       -0.10188        0.23190
N         -1.03170       -0.00799       -0.19033
C         -0.78033       -2.35572       -0.42809
H         -0.75813       -2.48864       -1.51062
H         -1.16676       -3.27654        0.01145
C         -0.81361        2.34194       -0.42814
H         -0.79388        2.47668       -1.51051
H         -1.21312        3.25655        0.01284
N          0.62431       -2.10779        0.02025
N          0.59468        2.11410        0.01956
C          3.27234        0.02014        0.34156
H          2.74868        0.01860        1.30239
H          3.89181       -0.86990        0.27292
H          3.88133        0.91714        0.26974
C          1.53443       -2.92093       -0.80969
H          2.55004       -2.79909       -0.44215
H          1.26340       -3.97915       -0.75852
H          1.48456       -2.57834       -1.83983
C          0.75513       -2.54221        1.42965
H          0.56617       -3.61630        1.51189
H          1.76098       -2.32753        1.78070
H          0.04258       -2.00167        2.04780
C          1.49321        2.93900       -0.81137
H          1.20835        3.99364       -0.76052
H          2.51051        2.83070       -0.44423
H          1.44742        2.59526       -1.84131
C          0.72013        2.55144        1.42857
H          1.72918        2.35175        1.77922
H          0.51583        3.62279        1.51019
H          0.01612        2.00091        2.04768
H          2.65086        0.01491       -0.63057
Ir         0.90641        0.00493       -0.08629
H         -5.46438        0.77355        0.27203

ts_xyz/HZIrMeH.xyz

1 1
C         -1.69569       -1.18496       -0.17606
C         -1.71397        1.15231       -0.18401
C         -3.06077       -1.23994       -0.02189
C         -3.08256        1.18524       -0.03204
C         -3.76041       -0.03298        0.06162
H         -3.59192       -2.17878        0.02678
H         -3.61735        2.12406        0.00707
O         -5.08624       -0.10720        0.22264
N         -1.06957       -0.01001       -0.22610
C         -0.77470       -2.35168       -0.42850
H         -0.73526       -2.48698       -1.51011
H         -1.15791       -3.27584        0.00599
C         -0.81220        2.33345       -0.43915
H         -0.76739        2.46182       -1.52144
H         -1.21283        3.25433       -0.01330
N          0.63268       -2.10877        0.03766
N          0.59517        2.11607        0.03821
C          3.03008        0.02464        0.27268
H          3.21602        0.04510        1.35894
H          3.56334       -0.85456       -0.10642
H          3.55250        0.89640       -0.13744
C          1.54181       -2.95004       -0.76617
H          2.55299       -2.83431       -0.38807
H          1.24915       -4.00091       -0.69961
H          1.51032       -2.62462       -1.80215
C          0.74143       -2.51824        1.45656
H          0.52474       -3.58302        1.56357
H          1.75023       -2.31704        1.80827
H          0.03098       -1.95181        2.05732
C          1.49534        2.97608       -0.75547
H          1.18373        4.02145       -0.68765
H          2.50545        2.87658       -0.36988
H          1.47760        2.65363       -1.79271
C          0.68354        2.52219        1.45956
H          1.69402        2.34301        1.81823
H          0.44141        3.58123        1.56908
H         -0.01766        1.93609        2.05221
H          1.16381        0.00775       -1.58645
Ir         0.96356        0.00674       -0.06918
H         -5.47957        0.76750        0.26199

