%nprocshared=48
%chk=QST2_ZRhMeH_sigma_ZRhMeH.chk
%mem=16GB
# wb97xd def2TZVPP SCRF=(solvent=dichloromethane) opt=qst2 freq

ts_xyz/ZRhMeH_sigma.xyz

0 1
C          1.54481        1.16606       -0.23112
C          1.54483       -1.16603       -0.23114
C          2.89209        1.21498       -0.02306
C          2.89211       -1.21493       -0.02307
C          3.66147        0.00003        0.11241
H          3.40594        2.16547        0.03524
H          3.40599       -2.16540        0.03521
O          4.89445        0.00005        0.32049
N          0.88106        0.00001       -0.31108
C          0.64724        2.34185       -0.50578
H          0.57344        2.44829       -1.58890
H          1.05420        3.27421       -0.10625
C          0.64729       -2.34183       -0.50580
H          0.57347       -2.44827       -1.58892
H          1.05428       -3.27420       -0.10628
N         -0.73413        2.11422        0.00805
N         -0.73408       -2.11424        0.00805
C         -3.45377        0.00001        0.30915
H         -2.81246        0.00058        1.20165
H         -4.07043        0.89400        0.31994
H         -4.06960       -0.89455        0.32048
C         -1.67560        2.96163       -0.73649
H         -2.67460        2.83011       -0.32684
H         -1.39926        4.01877       -0.65904
H         -1.68094        2.66457       -1.78231
C         -0.77948        2.48265        1.43519
H         -0.56499        3.54951        1.56190
H         -1.76775        2.26905        1.83559
H         -0.04325        1.90271        1.98677
C         -1.67554       -2.96167       -0.73647
H         -1.39919       -4.01880       -0.65901
H         -2.67454       -2.83016       -0.32681
H         -1.68090       -2.66462       -1.78229
C         -0.77940       -2.48266        1.43520
H         -1.76767       -2.26909        1.83560
H         -0.56488       -3.54953        1.56191
H         -0.04318       -1.90271        1.98676
H         -2.89802       -0.00005       -0.66947
Rh        -1.06217       -0.00002       -0.11951

ts_xyz/ZRhMeH.xyz

0 1
C         -1.53761       -1.16670       -0.31252
C         -1.53761        1.16670       -0.31252
C         -2.86725       -1.22066       -0.01544
C         -2.86725        1.22066       -0.01544
C         -3.62816        0.00000        0.15003
H         -3.37404       -2.16862        0.10784
H         -3.37404        2.16862        0.10784
O         -4.84551        0.00000        0.42795
N         -0.89467       -0.00000       -0.46519
C         -0.61747       -2.33493       -0.56405
H         -0.50251       -2.44084       -1.64318
H         -1.02318       -3.27132       -0.17532
C         -0.61747        2.33493       -0.56405
H         -0.50251        2.44084       -1.64318
H         -1.02318        3.27132       -0.17532
N          0.75211       -2.10234       -0.00155
N          0.75211        2.10234       -0.00155
C          3.08997       -0.00000        0.51191
H          3.07465        0.00000        1.61221
H          3.66536       -0.87815        0.20157
H          3.66537        0.87815        0.20156
C          1.70830       -2.99288       -0.67531
H          2.69156       -2.85925       -0.23303
H          1.40461       -4.03852       -0.56701
H          1.75696       -2.73585       -1.73011
C          0.73808       -2.40434        1.44287
H          0.46083       -3.44793        1.61508
H          1.72609       -2.22011        1.85758
H          0.01356       -1.76374        1.94575
C          1.70830        2.99288       -0.67531
H          1.40461        4.03852       -0.56701
H          2.69156        2.85925       -0.23303
H          1.75696        2.73585       -1.73011
C          0.73808        2.40434        1.44287
H          1.72609        2.22011        1.85758
H          0.46083        3.44793        1.61508
H          0.01356        1.76374        1.94575
H          1.70328       -0.00000       -1.50468
Rh         1.11603       -0.00000       -0.12199

