%nprocshared=8
%chk=ZHIrMe.chk
%mem=1GB
# wb97xd def2TZVPP SCRF=(solvent=dichloromethane) opt freq

ZHIrMe

0 1
C         -1.54395       -1.20579       -0.65081
C         -1.54423        1.20545       -0.65082
C         -2.70832       -1.23153        0.05341
C         -2.70860        1.23093        0.05340
C         -3.45547       -0.00039        0.36374
H         -3.05848       -2.17203        0.49048
H         -3.05898        2.17135        0.49047
O         -4.55050       -0.00051        0.93119
N         -1.04208       -0.00011       -1.19184
C         -0.59799       -2.35245       -0.89216
H         -0.27311       -2.36580       -1.95089
H         -1.05739       -3.33159       -0.64702
C         -0.59853        2.35232       -0.89217
H         -0.27361        2.36574       -1.95089
H         -1.05815        3.33135       -0.64704
N          0.62651       -2.11019       -0.05587
N          0.62599        2.11034       -0.05584
C          2.47233        0.00019        1.16034
H          2.18158        0.00021        2.23855
H          3.13929       -0.88210        1.03386
H          3.13925        0.88250        1.03381
C          1.76934       -2.84340       -0.65132
H          2.64620       -2.73081        0.00073
H          1.51987       -3.92165       -0.74945
H          1.99309       -2.40950       -1.63760
C          0.38941       -2.62489        1.31664
H          0.25575       -3.72883        1.29283
H          1.25783       -2.36240        1.93889
H         -0.50916       -2.14128        1.72873
C          1.76865        2.84383       -0.65129
H          1.51890        3.92202       -0.74942
H          2.64553        2.73148        0.00076
H          1.99252        2.41000       -1.63756
C          0.38865        2.62499        1.31665
H          1.25708        2.36274        1.93898
H          0.25470        3.72890        1.29281
H         -0.50984        2.14115        1.72868
H         -0.77182       -0.00008       -2.18312
Ir         0.77808        0.00009       -0.00825

