%nprocshared=8
%chk=ZHRhMe.chk
%mem=1GB
# wb97xd def2TZVPP SCRF=(solvent=dichloromethane) opt freq

ZHRhMe

0 1
C         -1.42048       -1.19779       -0.67384
C         -1.42044        1.19786       -0.67383
C         -2.57991       -1.23148        0.04112
C         -2.57985        1.23159        0.04113
C         -3.32423        0.00007        0.36112
H         -2.94096       -2.17906        0.45252
H         -2.94087        2.17919        0.45253
O         -4.41364        0.00009        0.93735
N         -0.97029        0.00003       -1.21320
C         -0.45968       -2.34137       -0.89590
H         -0.12923       -2.35867       -1.95159
H         -0.92877       -3.31708       -0.65316
C         -0.45958        2.34140       -0.89589
H         -0.12915        2.35869       -1.95159
H         -0.92863        3.31713       -0.65314
N          0.76404       -2.12148       -0.05328
N          0.76413        2.12145       -0.05329
C          2.65316       -0.00005        1.11136
H          2.32135       -0.00004        2.17703
H          3.30264       -0.88981        0.97555
H          3.30266        0.88970        0.97552
C          1.88138       -2.90442       -0.62316
H          2.76064       -2.80184        0.02797
H          1.60315       -3.97910       -0.69142
H          2.12332       -2.51090       -1.62217
C          0.50338       -2.58839        1.32790
H          0.32106       -3.68648        1.33463
H          1.38220       -2.35259        1.94716
H         -0.37490       -2.06006        1.72928
C          1.88152        2.90431       -0.62318
H          1.60337        3.97900       -0.69144
H          2.76077        2.80166        0.02794
H          2.12340        2.51076       -1.62219
C          0.50356        2.58840        1.32790
H          1.38240        2.35254        1.94713
H          0.32131        3.68650        1.33463
H         -0.37473        2.06012        1.72932
H         -0.02464        0.00001       -1.70586
Rh         0.97322       -0.00003       -0.01728

