%nprocshared=8
%chk=ZPt.chk
%mem=1GB
# wb97xd def2TZVPP SCRF=(solvent=dichloromethane) opt freq

ZPt

1 1
Pt         0.96509        0.00000        0.00996
C         -1.47733       -1.20430       -0.43220
C         -1.47733        1.20430       -0.43219
C         -2.78858       -1.24656       -0.07812
C         -2.78858        1.24656       -0.07811
C         -3.56262        0.00000        0.10719
H         -3.31273       -2.19867        0.04598
H         -3.31273        2.19867        0.04598
O         -4.75018        0.00000        0.41034
N         -0.84061        0.00000       -0.70675
C         -0.52902       -2.34940       -0.68047
H         -0.27828       -2.38399       -1.75581
H         -0.93664       -3.32705       -0.36792
C         -0.52902        2.34940       -0.68047
H         -0.27828        2.38399       -1.75581
H         -0.93664        3.32705       -0.36792
N          0.75921       -2.07152        0.06061
N          0.75921        2.07152        0.06061
C          1.87822       -2.82890       -0.55789
H          2.79562       -2.64824        0.02396
H          1.64921       -3.91122       -0.54457
H          2.01788       -2.48858       -1.59415
C          0.59592       -2.49520        1.48300
H          0.45333       -3.59155        1.52285
H          1.49765       -2.22196        2.05093
H         -0.28365       -1.98988        1.91087
C          1.87823        2.82890       -0.55789
H          1.64921        3.91122       -0.54457
H          2.79562        2.64824        0.02396
H          2.01788        2.48858       -1.59415
C          0.59592        2.49520        1.48300
H          1.49765        2.22196        2.05093
H          0.45333        3.59155        1.52285
H         -0.28364        1.98988        1.91087

