%nprocshared=8
%chk=ZPtMe.chk
%mem=1GB
# wb97xd def2TZVPP SCRF=(solvent=dichloromethane) opt freq

ZPtMe

0 1
Pt      -0.92072900      -0.00003500      -0.03072700      
C        1.69690300       1.17056800      -0.35080000      
C        1.69697900      -1.17048200      -0.35074100      
C        3.02831900       1.22918800      -0.09851300      
C        3.02839900      -1.22899800      -0.09844700      
C        3.80667600       0.00012400       0.04128300      
H        3.54761000       2.17239600       0.00305400      
H        3.54775500      -2.17216600       0.00315900      
O        5.01451800       0.00017000       0.26950500      
N        1.04709200       0.00001800      -0.48909700      
C        0.75491400       2.32644000      -0.57669500      
H        0.58930000       2.42093200      -1.65030800      
H        1.15747100       3.27212700      -0.20885900      
C        0.75507400      -2.32643100      -0.57660200      
H        0.58950200      -2.42099100      -1.65021600      
H        1.15767700      -3.27207300      -0.20870300      
N       -0.59454200       2.08089400       0.04936500      
N       -0.59443200      -2.08095200       0.04937300      
C       -2.92576700      -0.00004900       0.49893500      
H       -3.57072200      -0.00002500      -0.38837700      
H       -3.22039000      -0.87316000       1.09425500      
H       -3.22036800       0.87304800       1.09428800      
C       -1.60723200       2.90238600      -0.63389100      
H       -2.57014000       2.75158800      -0.15299800      
H       -1.33627300       3.96160600      -0.58368600      
H       -1.68104300       2.59314000      -1.67325200      
C       -0.53138200       2.47498600       1.47284300      
H       -0.34091900       3.54982300       1.55259400      
H       -1.47387000       2.23470400       1.95701600      
H        0.27251000       1.93117300       1.96323000      
C       -1.60701700      -2.90250700      -0.63396700      
H       -1.33598500      -3.96170800      -0.58374900      
H       -2.56997300      -2.75178600      -0.15315100      
H       -1.68076800      -2.59326000      -1.67333200      
C       -0.53134300      -2.47504700       1.47285400      
H       -1.47387600      -2.23481400       1.95696400      
H       -0.34083100      -3.54987600       1.55261000      
H        0.27248900      -1.93119800       1.96329900      

