%nprocshared=8
%chk=ZPtMeH_sigma.chk
%mem=1GB
# wb97xd def2TZVPP SCRF=(solvent=dichloromethane) opt freq

ZPtMeH_sigma

1 1
Pt         0.82600       -0.00001       -0.09574
C         -1.68366       -1.19894       -0.36765
C         -1.68365        1.19896       -0.36764
C         -2.98173       -1.24382        0.03587
C         -2.98172        1.24385        0.03587
C         -3.74748        0.00002        0.26527
H         -3.49865       -2.19758        0.17539
H         -3.49862        2.19761        0.17540
O         -4.91921        0.00002        0.62782
N         -1.04301        0.00001       -0.62855
C         -0.75785       -2.34315       -0.68376
H         -0.57955       -2.37451       -1.77385
H         -1.13989       -3.32402       -0.34971
C         -0.75783        2.34316       -0.68375
H         -0.57953        2.37452       -1.77384
H         -1.13986        3.32404       -0.34969
N          0.58633       -2.07739       -0.03585
N          0.58635        2.07738       -0.03585
C          3.16690       -0.00000        0.89809
H          2.44082       -0.00001        1.72634
H          3.78538       -0.90550        0.95482
H          3.78533        0.90552        0.95480
C          1.63712       -2.86373       -0.73261
H          2.59403       -2.73172       -0.20485
H          1.36502       -3.93578       -0.72346
H          1.72733       -2.51020       -1.77012
C          0.51848       -2.49946        1.39386
H          0.34930       -3.59134        1.44446
H          1.47019       -2.25513        1.89052
H         -0.31277       -1.97203        1.88726
C          1.63716        2.86370       -0.73262
H          1.36506        3.93576       -0.72347
H          2.59406        2.73169       -0.20487
H          1.72735        2.51018       -1.77013
C          0.51853        2.49945        1.39386
H          1.47023        2.25507        1.89051
H          0.34940        3.59134        1.44447
H         -0.31273        1.97205        1.88726
H          2.75020       -0.00003       -0.16904

