%nprocshared=8
%chk=ZRh.chk
%mem=1GB
# wb97xd def2TZVPP SCRF=(solvent=dichloromethane) opt freq

ZRh

0 1
C          1.29836        1.18275       -0.29957
C          1.29836       -1.18275       -0.29957
C          2.65091        1.22941       -0.07856
C          2.65091       -1.22941       -0.07856
C          3.43977        0.00000        0.07010
H          3.17615        2.18882       -0.03441
H          3.17615       -2.18882       -0.03441
O          4.66111        0.00000        0.28458
N          0.62294        0.00000       -0.39931
C          0.36995        2.33851       -0.58525
H          0.18682        2.37859       -1.67542
H          0.78082        3.31540       -0.25593
C          0.36995       -2.33851       -0.58525
H          0.18682       -2.37859       -1.67542
H          0.78082       -3.31540       -0.25593
N         -0.96289        2.09117        0.05855
N         -0.96289       -2.09117        0.05855
C         -1.98375        2.94652       -0.57575
H         -2.94868        2.78755       -0.06686
H         -1.70582        4.02011       -0.49087
H         -2.07944        2.66779       -1.63586
C         -0.85735        2.44389        1.49577
H         -0.65319        3.53237        1.60374
H         -1.80094        2.19388        2.00443
H         -0.03738        1.86549        1.94787
C         -1.98375       -2.94652       -0.57575
H         -1.70582       -4.02011       -0.49087
H         -2.94868       -2.78755       -0.06686
H         -2.07944       -2.66780       -1.63586
C         -0.85734       -2.44389        1.49578
H         -1.80094       -2.19388        2.00443
H         -0.65319       -3.53237        1.60374
H         -0.03738       -1.86549        1.94787
Rh        -1.25293        0.00000       -0.06655

