%nprocshared=8
%chk=ZRhMeH_sigma.chk
%mem=1GB
# wb97xd def2TZVPP SCRF=(solvent=dichloromethane) opt freq

ZRhMeH_sigma

0 1
C          1.53315        1.17883       -0.30889
C          1.53315       -1.17884       -0.30889
C          2.86908        1.22959       -0.00180
C          2.86908       -1.22960       -0.00179
C          3.64916       -0.00000        0.18844
H          3.38795        2.18916        0.09015
H          3.38795       -2.18917        0.09016
O          4.85580       -0.00000        0.47577
N          0.86296       -0.00000       -0.46087
C          0.61531        2.33551       -0.62390
H          0.46619        2.37492       -1.71929
H          1.01272        3.31385       -0.28373
C          0.61531       -2.33551       -0.62389
H          0.46619       -2.37493       -1.71929
H          1.01271       -3.31386       -0.28372
N         -0.74266        2.09360       -0.02402
N         -0.74267       -2.09360       -0.02402
C         -3.39918        0.00000        0.57410
H         -2.64004        0.00001        1.38713
H         -4.01954        0.90277        0.66061
H         -4.01952       -0.90278        0.66062
C         -1.73852        2.93864       -0.71102
H         -2.71873        2.80190       -0.22632
H         -1.45228        4.01110       -0.64880
H         -1.80644        2.63002       -1.76511
C         -0.69718        2.46933        1.40926
H         -0.48856        3.55709        1.51061
H         -1.66850        2.23872        1.87598
H          0.09642        1.89163        1.90785
C         -1.73853       -2.93863       -0.71103
H         -1.45228       -4.01110       -0.64880
H         -2.71874       -2.80190       -0.22633
H         -1.80644       -2.63002       -1.76511
C         -0.69720       -2.46933        1.40926
H         -1.66851       -2.23871        1.87597
H         -0.48858       -3.55708        1.51061
H          0.09640       -1.89163        1.90785
H         -2.95363        0.00001       -0.47711
Rh        -1.04436        0.00000       -0.12660

