%nprocshared=48
%chk=trans-H_Ir_PH3_2_NH3.chk
%mem=16GB
# PBEPBE GenECP Pop=NBO freq Popt

trans-(H)Ir(PH3)2(NH3)

0 1 
Ir
H,1,B1
P,1,B2,2,A1 
N,1,B3,3,A2,2,D1,0 
P,1,B4,4,A3,3,D2,0 
H,3,B5,1,A4,2,D3,0 
H,3,B6,1,A5,6,D4,0 
H,3,B7,1,A6,7,D5,0 
H,5,B8,1,A7,7,D6,0 
H,5,B9,1,A8,7,D7,0 
H,5,B10,1,A9,7,D8,0 
H,4,B11,1,A10,3,D9,0 
H,4,B12,1,A11,3,D10,0 
H,4,B13,1,A12,3,D11,0
Variables: 
B1=1.59755426 
B2=2.24698953 
B3=2.27917749 
B4=2.25084966 
B5=1.43291407 
B6=1.44065368 
B7=1.43293387 
B8=1.43299539 
B9=1.43920116
B10=1.43295378 
B11=1.02517114 
B12=1.02516477 
B13=1.02505236 
A4=121.52744511 
A5=119.3228231 
A6=121.52775606 
A7=121.1536742 
A8=120.15525688 
A9=121.17822814 
A10=110.69923269 
A11=110.65586031 
A12=113.35048137 
D3=60.93973808 
D4=119.00516285 
D5=119.0131413 
D6=-119.44033303 
D7=-0.0213272 
D8=119.42782317 
D9=119.98063144 
D10=-120.29222663 
D11=-0.17115938
Constants: 
A1=90.
A2=90. 
A3=90. 
D1=180. 
D2=-180.

P N H 0
6-311+G(d,p)
****
Ir 0
SDD
****

Ir 0
SDD

