%nprocshared=48
%chk=trans-phenyl_Ir_PH3_2_CO.chk
%mem=16GB
# PBEPBE GenECP POpt Pop=NBO7

trans-(H)Ir(PH3)2(CO)

0 1 
Ir  1
C   1 B1
P   1 B2     2 A1
C   1 B3     3 A2  2 D1
P   1 B4     2 A3  3 D2
H   3 B5     1 A4   2 D3 
H   3 B6     1 A5   2 D4 
H   3 B7     1 A6   2 D5 
H   5 B8     1 A7   2 D6 
H   5 B9     1 A8   2 D7 
H   5 B10    1 A9   2 D8 
O   1 B11    3 A10  8 D9 
C   3 B14    1 A13  2 D12
C  13 B15    2 A14  1 D13
C  14 B16   13 A15  2 D14
C  15 B17   14 A16 13 D15
C   2 B18    1 A17  3 D16
H  13 B19    2 A18  1 D17
H  14 B20   13 A19  2 D18
H  15 B21   14 A20 13 D19
H  16 B22   15 A21 14 D20
H  17 B23    2 A22  1 D21
Variables:
B1=2.104
B2=2.264
B4=2.270
B5=1.431
B6=1.437
B7=1.431
B8=1.431
B9=1.435
B10=1.431
B11=3.145
B14=2.994 
B15=1.395
B16=1.395
B17=1.395
B18=1.395
B19=1.087
B20=1.087
B21=1.087
B22=1.087
B23=1.087
A4 =120.705
A5 =118.798
A6 =120.720
A7 =120.114
A8 =120.136
A9 =120.119
A10=90.
A13=69.4
A14=119.984
A15=120.000
A16=120.000
A17=119.990
A18=120.009
A19=120.000
A20=120.000
A21=120.000
A22=119.984
D3 = 60.7
D4 =180.0
D5 =299.2
D6 = 60.0
D7 =179.9
D8 =299.9
D9 =119.2
D14=359.0
D16=179.5
D17=359.1
D18=179.0
D19=180.0
D20=180.0
D21=  0.9
Constants:
B3=1.868
A1=90.
A2=90.
A3=90.
D1=180.
D2=-180. 
D13=180.0
D15=360.0
D12=0.0

C O P H 0
6-311+G(d,p)
****
Ir 0
SDD
****

Ir 0
SDD

$NBO FILE=NBODATA
AOPNAO=W32 AOPNHO=W34 AOPNBO=W36
DMNAO=W82 DMNHO=W84 DMNBO=W86
FNAO=W92 FNHO=W94 FNBO=W96
BNDIDX
$END
