%nprocshared=48
%chk=trans-H_Ir_PH3_2_NH3.chk
%mem=16GB
# PBEPBE GenECP Pop=NBO Popt freq

trans-(F)Ir(PH3)2(NH3)

0 1 
Ir
F,1,B1
P,1,B2,2,A1 
N,1,B3,3,A2,2,D1,0 
P,1,B4,4,A3,3,D2,0 
H,3,B5,1,A4,2,D3,0 
H,3,B6,1,A5,6,D4,0 
H,3,B7,1,A6,7,D5,0 
H,5,B8,1,A7,7,D6,0 
H,5,B9,1,A8,7,D7,0 
H,5,B10,1,A9,7,D8,0 
H,4,B11,1,A10,3,D9,0 
H,4,B12,1,A11,3,D10,0 
H,4,B13,1,A12,3,D11,0
Variables: 
B1=2.03527104 
B2=2.26430334 
B3=2.13349185 
B4=2.27013788 
B5=1.43080932 
B6=1.43710216 
B7=1.43080845 
B8=1.43095431 
B9=1.43480311
B10=1.43096465 
B11=1.02748249 
B12=1.02748619 
B13=1.02689906 
A4=120.70479384 
A5=118.79842493 
A6=120.72031244 
A7=120.11403879 
A8=120.13565792 
A9=120.11943566 
A10=111.51717123 
A11=111.52055323
A12=113.18297771 
D3=60.74924753 
D4=119.21013724 
D5=119.23386832 
D6=-120.01067474 
D7=-0.09780162 
D8=119.81838764 
D9=119.75462725 
D10=-119.68770128 
D11=0.03578748
Constants: 
A1=90.
A2=90. 
A3=90. 
D1=180. 
D2=-180.

F P N H 0
6-311+G(d,p)
****
Ir 0
SDD
****

Ir 0
SDD

