%nprocshared=48
%oldchk=scan_forward_MeZPtMeMe.chk
%chk=scan_forward2_MeZPtMeMe.chk
%mem=20GB
# wb97xd def2TZVPP SCRF=(solvent=dichloromethane) opt=modredundant 

scan_MeZPtMeMe

2 1
 Pt     1.2144987159  0.074687239  -0.0704784631
 C     -1.2669995282  -1.3521389469  -0.3761460986
 C     -1.4965421003  0.9878320301  -0.3972973788
 C     -2.6086409548  -1.5176546006  -0.1754329841
 C     -2.8532609555  0.9008500459  -0.1994732151
 C     -3.4222372771  -0.3749059221  -0.0774648844
 H     -3.0475803235  -2.4979867422  -0.0677202247
 H     -3.4433195038  1.7994826332  -0.1221813835
 O     -4.7010664159  -0.5953316425  0.1531993686
 N     -0.7603485636  -0.1175567153  -0.4845474267
 C     -0.2401735395  -2.4408671845  -0.5267302919
 H     -0.0982857597  -2.6426322486  -1.587219693
 H     -0.573788457  -3.3691691613  -0.0686422401
 C     -0.7018387979  2.2538470946  -0.5571189643
 H     -0.5808502967  2.4610578118  -1.6192005146
 H     -1.2177233148  3.1076922149  -0.1226106261
 N     1.0931080433  -2.0507384854  0.0622174427
 N     0.6660628741  2.1335746141  0.0622009139
 C     2.747374347  0.2294850933  1.310279777
 H     2.1246173534  0.1762321169  2.2148199863
 H     3.4589879383  -0.5929471509  1.3201517162
 H     3.2860573269  1.1749350753  1.3098799609
 C     2.171980527  -2.7865441129  -0.6379217536
 H     3.1219271732  -2.5459186615  -0.1706830127
 H     1.9914070809  -3.8591353456  -0.5630621017
 H     2.1988261135  -2.4937045581  -1.6829782107
 C     1.0870505982  -2.4568013814  1.4950133842
 H     0.9311083576  -3.5331844709  1.5572428393
 H     2.0383678932  -2.2083960366  1.9517020337
 H     0.2825331558  -1.9438510471  2.0192779063
 C     1.5859034436  3.087267534  -0.5996915415
 H     1.1837397767  4.0978716808  -0.5237193043
 H     2.5528279332  3.0423348272  -0.1083116285
 H     1.6994391027  2.8209873743  -1.6466125961
 C     0.5362189268  2.490926311  1.5024739187
 H     1.5125224968  2.4644077072  1.9731404265
 H     0.1249183251  3.4958461056  1.5878424791
 H     -0.1255636493  1.7800356454  1.9942502074
 C     -5.5834064983  0.5116278891  0.3409431359
 H     -6.5579299979  0.0782526315  0.5350286109
 H     -5.625557813  1.1263357631  -0.5574899198
 H     -5.2686639867  1.1089810799  1.1967482513
 C     1.0283343379  0.0451412412  -2.1543370321
 H     0.5918109584  -0.8874732895  -2.4871211702
 H     0.4371292529  0.8838295536  -2.4963621181
 H     2.0680456812  0.134486391  -2.4614775806

A 43  1 19 S 6 5.0

