%nprocshared=48
%chk=scan_forward_MeZPtMeMe.chk
%mem=16GB
# wb97xd def2TZVPP SCRF=(solvent=dichloromethane) opt=modredundant

scan_MeZPtMeMe

2 1
Pt         1.11749        0.05820        0.03272
C         -1.40176       -1.34228       -0.30211
C         -1.62162        0.99004       -0.24827
C         -2.75145       -1.51164       -0.17044
C         -2.98559        0.91328       -0.11464
C         -3.55994       -0.36401       -0.05373
H         -3.19317       -2.49351       -0.11140
H         -3.56486        1.81688       -0.04620
O         -4.84645       -0.62208        0.12940
N         -0.88262       -0.11328       -0.32593
C         -0.35861       -2.41271       -0.48960
H         -0.16334       -2.50615       -1.55708
H         -0.69024       -3.38039       -0.11993
C         -0.80520        2.24703       -0.40604
H         -0.71758        2.45503       -1.47168
H         -1.27932        3.10630        0.06274
N          0.95435       -2.04927        0.16655
N          0.59501        2.10612        0.15370
C          3.11746        0.21049        0.53499
H          3.22364        0.05385        1.60882
H          3.71191       -0.53321        0.00607
H          3.51734        1.19153        0.28552
C          2.02627       -2.87249       -0.43790
H          2.96031       -2.66941        0.07431
H          1.77590       -3.92648       -0.32821
H          2.12841       -2.64157       -1.49271
C          0.87428       -2.36853        1.62255
H          0.70153       -3.43690        1.74230
H          1.81094       -2.09605        2.09815
H          0.05090       -1.82663        2.08337
C          1.46665        3.10389       -0.50792
H          1.05254        4.09826       -0.34624
H          2.45854        3.05745       -0.07140
H          1.52099        2.90480       -1.57176
C          0.55835        2.39586        1.61233
H          1.56308        2.32474        2.01836
H          0.16930        3.39875        1.77911
H         -0.08668        1.67402        2.11344
C         -5.79376        0.43050        0.16207
H         -6.71941       -0.00828        0.51769
H         -5.91494        0.82982       -0.84247
H         -5.52320        1.22442        0.85437
C          1.69833        0.18266       -1.88846
H          1.86179       -0.81429       -2.28718
H          0.89535        0.65395       -2.45120
H          2.61010        0.76236       -1.97168

A 43  1 19 S 10 5.0

