%nprocshared=48
%chk=scan_forward2_YPtMeMe.chk
%mem=16GB
# wb97xd def2TZVPP SCRF=(iterative,solvent=dichloromethane) opt=(modredundant)

scan_YPtMeMe

1 1
C         -1.95507       -1.21895        0.08324
C         -1.96186        1.21307        0.04356
C         -3.34138       -1.22750        0.01019
C         -3.34879        1.21043       -0.03146
C         -4.01963       -0.01107       -0.05702
H         -3.90050       -2.15473        0.01394
H         -3.91333        2.13400       -0.06002
C         -1.04206       -2.39867        0.29164
H         -1.37353       -3.30939       -0.20853
H         -0.98255       -2.61895        1.35793
C         -1.06221        2.40692        0.22346
H         -1.38315        3.28893       -0.33176
H         -1.04454        2.68076        1.27848
N          0.36982       -2.08652       -0.16753
N          0.37174        2.09268       -0.16756
C          2.81748       -0.03960       -0.25054
H          3.31908       -0.48151        0.61609
H          3.26695        0.94516       -0.40682
C          0.47706       -2.40196       -1.61775
H          1.46626       -2.13166       -1.97689
H          0.31771       -3.47002       -1.76680
H         -0.28177       -1.84922       -2.16774
C          1.32942       -2.93986        0.56390
H          1.05830       -3.98873        0.43572
H          2.32689       -2.76995        0.16953
H          1.31564       -2.69289        1.62107
C          0.55605        2.41167       -1.60753
H          0.39824        3.47856       -1.76715
H          1.56592        2.14614       -1.90970
H         -0.16714        1.85403       -2.19956
C          1.28515        2.95225        0.61489
H          2.30396        2.79204        0.27701
H          1.01460        3.99880        0.46846
H          1.21327        2.70793        1.67021
H          3.10390       -0.64915       -1.11651
H         -5.09977       -0.01529       -0.11732
C         -1.30370       -0.00035        0.07314
Pt         0.68187        0.00086       -0.01008
C          0.72209        0.02756        2.02114
H          0.30851       -0.90507        2.39393
H          0.11426        0.85440        2.37735
H          1.76085        0.14234        2.31543

A 39 38 16 S 15 5.0

