%nprocshared=48
%chk=scan_YPtMeMe.chk
%mem=16GB
# wb97xd def2TZVPP SCRF=(solvent=dichloromethane) opt=modredundant

scan_YPtMeMe

1 1
C        1.92472000       1.21740000      -0.10490000       0.00000000
C        1.92460000      -1.21758000      -0.10485000       0.00000000
C        3.31071000       1.21419000      -0.03777000       0.00000000
C        3.31059000      -1.21450000      -0.03772000       0.00000000
C        3.98967000      -0.00019000       0.01378000       0.00000000
H        3.86587000       2.14364000      -0.03758000       0.00000000
H        3.86566000      -2.14400000      -0.03749000       0.00000000
C        1.03592000       2.40529000      -0.33111000       0.00000000
H        1.01844000       2.62882000      -1.39781000       0.00000000
H        1.36529000       3.30625000       0.18883000       0.00000000
C        1.03569000      -2.40539000      -0.33105000       0.00000000
H        1.01823000      -2.62896000      -1.39774000       0.00000000
H        1.36496000      -3.30636000       0.18893000       0.00000000
N       -0.38121000       2.09041000       0.07532000       0.00000000
N       -0.38142000      -2.09037000       0.07531000       0.00000000
C       -3.34632000       0.00013000      -0.12780000       0.00000000
H       -3.95949000       0.89485000      -0.18190000       0.00000000
H       -3.95942000      -0.89464000      -0.18188000       0.00000000
C       -1.31193000       2.89520000      -0.74098000       0.00000000
H       -2.32841000       2.73352000      -0.39102000       0.00000000
H       -1.07054000       3.95654000      -0.64997000       0.00000000
H       -1.23601000       2.59261000      -1.78205000       0.00000000
C       -0.55224000       2.45946000       1.50252000       0.00000000
H       -0.42227000       3.53752000       1.62012000       0.00000000
H       -1.54779000       2.18124000       1.83881000       0.00000000
H        0.18841000       1.93829000       2.10322000       0.00000000
C       -1.31218000      -2.89506000      -0.74105000       0.00000000
H       -1.07092000      -3.95643000      -0.65002000       0.00000000
H       -2.32867000      -2.73327000      -0.39115000       0.00000000
H       -1.23617000      -2.59248000      -1.78211000       0.00000000
C       -0.55258000      -2.45942000       1.50249000       0.00000000
H       -1.54813000      -2.18111000       1.83873000       0.00000000
H       -0.42272000      -3.53750000       1.62009000       0.00000000
H        0.18809000      -1.93833000       2.10325000       0.00000000
H       -2.67445000       0.00014000      -1.00079000       0.00000000
H        5.06958000      -0.00024000       0.07375000       0.00000000
C        1.26594000      -0.00006000      -0.09655000       0.00000000
Pt      -0.64495000       0.00003000      -0.07408000       0.00000000
C       -0.57034697      -0.05960720       1.90681950       1.00000000
H       -0.58306047       0.83662800       2.26269969       0.00000000
H        0.35086953      -0.78098700       2.26269969       0.00000000
H       -1.51699047      -0.78098700       2.26269969       0.00000000

A 38 39 16 S 25 5.0

