%nprocshared=48
%chk=scan_reverse_ZPtMeMe.chk
%mem=16GB
# wb97xd def2TZVPP SCRF=(iterative,solvent=dichloromethane) opt=(modredundant)

scan_ZPtMeMe

1 1
Pt       1.09427100       0.05536900       0.00612300      
C       -1.42936800      -1.34449300      -0.28026800      
C       -1.63468600       1.00035600      -0.25703600      
C       -2.75873000      -1.51467000      -0.07683700      
C       -2.97313500       0.93316800      -0.05309000      
C       -3.63395400      -0.35903400       0.04353200      
H       -3.19201600      -2.50226700      -0.00394600      
H       -3.57123100       1.82895700       0.03767200      
O       -4.85416400      -0.46769600       0.22643400      
N       -0.88752600      -0.11446300      -0.38140600      
C       -0.39676700      -2.41715400      -0.50055800      
H       -0.23861000      -2.51969400      -1.57395700      
H       -0.71108900      -3.38378200      -0.11000100      
C       -0.80460700       2.24021700      -0.45438000      
H       -0.67157000       2.39273200      -1.52534500      
H       -1.27993300       3.12914400      -0.04270300      
N        0.94200400      -2.05707300       0.10345300      
N        0.57922300       2.10534200       0.14110900      
C        3.06471700       0.21859100       0.62001500      
H        3.07134100       0.17312900       1.71337300      
H        3.69105100      -0.58904100       0.24103100      
H        3.52287900       1.15989200       0.31664500      
C        1.98580900      -2.88260100      -0.54150600      
H        2.95288600      -2.64477900      -0.10983800      
H        1.76605100      -3.93680800      -0.37085200      
H        2.00146100      -2.69725300      -1.61027400      
C        0.92806800      -2.37927600       1.55434400      
H        0.71176300      -3.43846800       1.69081300      
H        1.89956300      -2.14914700       1.98250100      
H        0.15834400      -1.79344700       2.05614600      
C        1.46302800       3.10378000      -0.49869300      
H        1.06138800       4.10246100      -0.32536800      
H        2.45608300       3.03860400      -0.06520300      
H        1.51338600       2.92476200      -1.56755600      
C        0.51821000       2.40064300       1.59671600      
H        1.51469800       2.32018100       2.02165400      
H        0.13858500       3.41082900       1.74745800      
H       -0.14940300       1.69446300       2.08924300      
C        1.82838300       0.15911900      -1.88838500      
H        2.41953500      -0.72875500      -2.08155800      
H        0.96183000       0.21259100      -2.54242900      
H        2.45456100       1.04018100      -1.97435100      

A 39 1 19 S 12 -5.0

