%nprocshared=48
%chk=scan_reverse_YPtMeMe.chk
%mem=16GB
# wb97xd def2TZVPP SCRF=(iterative,solvent=dichloromethane) opt=(modredundant)

scan_YPtMeMe

1 1
C        1.88049800       1.17908100      -0.21208800
C        1.89773900      -1.24351600      -0.03601900
C        3.23180100       1.15744300      -0.54505300
C        3.24195500      -1.27178100      -0.36881900
C        3.89259000      -0.06463200      -0.62322500
H        3.77964400       2.07318900      -0.73037000
H        3.78895800      -2.20441800      -0.42507600
C        1.04689800       2.40887700       0.01223500
H        1.14890200       3.13246800      -0.79649600
H        1.36779700       2.90313100       0.92716700
C        1.03619200      -2.38698600       0.41605900
H        1.29064400      -3.35385600      -0.02055000
H        1.12001300      -2.47934700       1.50036000
N       -0.44352700       2.09215200       0.17891600
N       -0.42183300      -2.10310300       0.14110400
C       -2.84367100       0.01921100       0.60290700
H       -3.20848000       0.88946200       1.15687300
H       -3.25916600      -0.85768000       1.10465000
C       -1.16379700       2.44463700      -1.07243000
H       -2.22716300       2.27435000      -0.93265200
H       -0.99188000       3.49317900      -1.31280700
H       -0.80376300       1.83009700      -1.89437100
C       -0.99619700       2.94497400       1.25532700
H       -0.90777800       3.99250200       0.96444000
H       -2.04194400       2.70054300       1.40862200
H       -0.44864300       2.79391300       2.17897200
C       -0.70888900      -2.38799800      -1.29053800
H       -0.53009100      -3.44581500      -1.48575200
H       -1.74963100      -2.15213100      -1.50079600
H       -0.05761300      -1.79895500      -1.93248900
C       -1.23708300      -3.01460800       0.96736900
H       -2.28581500      -2.87012500       0.73349000
H       -0.95686600      -4.04541600       0.74833600
H       -1.06642100      -2.81513900       2.02128400
H       -3.31490600       0.07137600      -0.38588800
H        4.94384300      -0.07728800      -0.87829000
C        1.24767000      -0.02223600       0.02507800
Pt      -0.71044000      -0.01478900       0.38325000
C       -0.38873300      -0.13359900       2.38572900
H       -0.26165500       0.87038900       2.77622600
H        0.51210400      -0.71153500       2.56605600
H       -1.26624100      -0.60133400       2.81995700

A 39 38 16 S 12 -5.0

