%nprocshared=48
%chk=MeZPtMeMe_sigma.chk
%mem=16GB
# wb97xd def2TZVPP SCRF=(solvent=dichloromethane) opt freq

MeZPtMeMe_sigma

2 1
Pt       0.89399200       0.03385900       0.04236300  
C       -1.56411600      -1.38340100      -0.06610400  
C       -1.78147700       0.95824500      -0.10836500  
C       -2.91796100      -1.54096400       0.00852600  
C       -3.15061100       0.87501700      -0.04092200  
C       -3.73398000      -0.39673400       0.03391600  
H       -3.36830400      -2.52202100       0.02917200  
H       -3.74070100       1.77661000      -0.05876200  
O       -5.03190700      -0.61371500       0.11371400  
N       -1.03450300      -0.14759100      -0.09122300  
C       -0.55143200      -2.47115500      -0.26722200  
H       -0.49467300      -2.66329600      -1.33890500  
H       -0.84064400      -3.39992000       0.22117500  
C       -0.98783000       2.21186900      -0.32301500  
H       -0.90590200       2.36483700      -1.39947500  
H       -1.47509100       3.08731100       0.10425200  
N        0.81673200      -2.06049400       0.19289400  
N        0.39932100       2.08232900       0.22655600  
C        3.36691600       0.26057400      -0.25064800  
H        2.56842400       0.16955800       0.58901900  
H        3.99263300      -0.57536600       0.05549300  
H        3.84265100       1.17983300       0.08459200  
C        1.81944900      -2.81731100      -0.59024600  
H        2.81645400      -2.56092900      -0.24317700  
H        1.65902200      -3.88701500      -0.45380500  
H        1.71752200      -2.56506900      -1.64183700  
C        0.96454600      -2.41209400       1.63268600  
H        0.87874200      -3.49386500       1.74761900  
H        1.93807800      -2.08711500       1.98865000  
H        0.18657300      -1.92131300       2.21231900  
C        1.26906600       3.05742800      -0.46560600  
H        0.85900900       4.06099100      -0.34802900  
H        2.26250100       3.03026400      -0.02736100  
H        1.32144600       2.81687400      -1.52243900  
C        0.36950200       2.41114000       1.67903600  
H        1.36059700       2.27768100       2.10323700  
H        0.06004600       3.44944000       1.80653500  
H       -0.33203300       1.75939600       2.19225000  
C       -5.93133000       0.49462100       0.12282500  
H       -6.92395600       0.06535700       0.19746400  
H       -5.84450700       1.06465400      -0.80202700  
H       -5.74038700       1.13586600       0.98293300  
C        3.15175100       0.26828200      -1.77940600  
H        2.70778300      -0.64740500      -2.15939900  
H        2.54917300       1.10617900      -2.12026900  
H        4.14043800       0.36963000      -2.22460200  

