%nprocshared=48
%chk=ZPtMeMe.chk
%mem=16GB
# wb97xd def2TZVPP SCRF=(solvent=dichloromethane) opt freq

ZPtMeMe

1 1
Pt       1.11749000       0.05820000       0.03272000
C       -1.40176000      -1.34228000      -0.30211000
C       -1.62162000       0.99004000      -0.24827000
C       -2.75145000      -1.51164000      -0.17044000
C       -2.98559000       0.91328000      -0.11464000
C       -3.55994000      -0.36401000      -0.05373000
H       -3.19317000      -2.49351000      -0.11140000
H       -3.56486000       1.81688000      -0.04620000
O       -4.84645000      -0.62208000       0.12940000
N       -0.88262000      -0.11328000      -0.32593000
C       -0.35861000      -2.41271000      -0.48960000
H       -0.16334000      -2.50615000      -1.55708000
H       -0.69024000      -3.38039000      -0.11993000
C       -0.80520000       2.24703000      -0.40604000
H       -0.71758000       2.45503000      -1.47168000
H       -1.27932000       3.10630000       0.06274000
N        0.95435000      -2.04927000       0.16655000
N        0.59501000       2.10612000       0.15370000
C        3.11746000       0.21049000       0.53499000
H        3.22364000       0.05385000       1.60882000
H        3.71191000      -0.53321000       0.00607000
H        3.51734000       1.19153000       0.28552000
C        2.02627000      -2.87249000      -0.43790000
H        2.96031000      -2.66941000       0.07431000
H        1.77590000      -3.92648000      -0.32821000
H        2.12841000      -2.64157000      -1.49271000
C        0.87428000      -2.36853000       1.62255000
H        0.70153000      -3.43690000       1.74230000
H        1.81094000      -2.09605000       2.09815000
H        0.05090000      -1.82663000       2.08337000
C        1.46665000       3.10389000      -0.50792000
H        1.05254000       4.09826000      -0.34624000
H        2.45854000       3.05745000      -0.07140000
H        1.52099000       2.90480000      -1.57176000
C        0.55835000       2.39586000       1.61233000
H        1.56308000       2.32474000       2.01836000
H        0.16930000       3.39875000       1.77911000
H       -0.08668000       1.67402000       2.11344000
C        1.69833000       0.18266000      -1.88846000
H        1.86179000      -0.81429000      -2.28718000
H        0.89535000       0.65395000      -2.45120000
H        2.61010000       0.76236000      -1.97168000

