%nprocshared=48
%chk=scan_YRhMeH_reverse.chk
%mem=16GB
# wb97xd def2TZVPP SCRF=(solvent=dichloromethane) opt=modredundant

scan_YRhMeH

0 1
 C                  1.78306066    1.22106084   -0.12781026
 C                  1.78418509   -1.21934529   -0.12791725
 C                  3.16525555    1.22946849    0.10098704
 C                  3.16637849   -1.22651308    0.10088300
 C                  3.84164330    0.00178480    0.22580998
 H                  3.72800078    2.16827546    0.17982513
 H                  3.72998127   -2.16481172    0.17964365
 C                  0.89518107    2.40700715   -0.43009162
 H                  0.87704536    2.56744441   -1.52502051
 H                  1.21403444    3.36301275    0.04167634
 C                  0.89739674   -2.40609150   -0.43028744
 H                  0.87922727   -2.56633563   -1.52524207
 H                  1.21724724   -3.36187274    0.04127259
 N                 -0.53103280    2.10927820   -0.02878171
 N                 -0.52902484   -2.10981254   -0.02876077
 C                 -2.93908314   -0.00137278    0.45988532
 H                 -2.71951229   -0.00255936    1.55283058
 H                 -3.56545096    0.88656878    0.24874830
 H                 -3.56585516   -0.88858214    0.24691282
 C                 -1.44235374    2.97253816   -0.80481316
 H                 -2.47287948    2.81019378   -0.45458507
 H                 -1.17268169    4.04343931   -0.67107485
 H                 -1.37337352    2.70049630   -1.86875885
 C                 -0.68676593    2.42613905    1.41061072
 H                 -0.49006519    3.50687041    1.58694495
 H                 -1.71220451    2.18195515    1.72825190
 H                  0.03165089    1.82393592    1.99006350
 C                 -1.43961205   -2.97392285   -0.80469674
 H                 -1.16896282   -4.04457801   -0.67095654
 H                 -2.47025091   -2.81248910   -0.45437485
 H                 -1.37098506   -2.70185552   -1.86866109
 C                 -0.68418243   -2.42690584    1.41063146
 H                 -1.70990634   -2.18406880    1.72835867
 H                 -0.48608784   -3.50739205    1.58690688
 H                  0.03350592   -1.82381158    1.99006189
 H                 -2.09665039   -0.00082504   -1.13341343
 H                  4.91967155    0.00227264    0.41568449
 C                  1.09456223    0.00054693   -0.22395655
 Rh(Iso=102.905)   -0.87664645   -0.00039794   -0.16661565

A 36 39 16 S 6 -5.0

