%nprocshared=48
%chk=scan_ZIrMeH.chk
%mem=16GB
# wb97xd def2TZVPP SCRF=(solvent=dichloromethane) opt=modredundant

scan_ZIrMeH

0 1
C         -1.71978       -1.16905       -0.19473
C         -1.71978        1.16905       -0.19473
C         -3.06928       -1.21586       -0.00808
C         -3.06927        1.21586       -0.00808
C         -3.83922        0.00001        0.12019
H         -3.58581       -2.16554        0.03465
H         -3.58580        2.16555        0.03465
O         -5.07441        0.00001        0.31157
N         -1.05529        0.00000       -0.25573
C         -0.81990       -2.34074       -0.47914
H         -0.76065       -2.44656       -1.56298
H         -1.21555       -3.27344       -0.07257
C         -0.81989        2.34075       -0.47914
H         -0.76064        2.44656       -1.56298
H         -1.21554        3.27344       -0.07257
N          0.57542       -2.11152        0.01463
N          0.57543        2.11152        0.01463
C          3.24431       -0.00000        0.42317
H          2.73319       -0.00001        1.38669
H          3.86129       -0.89179        0.34323
H          3.86129        0.89180        0.34325
C          1.50014       -2.94564       -0.77259
H          2.50622       -2.82976       -0.37661
H          1.21544       -4.00093       -0.71604
H          1.48641       -2.61806       -1.80878
C          0.64780       -2.53421        1.42996
H          0.43837       -3.60514        1.51502
H          1.64253       -2.33157        1.81880
H         -0.08054       -1.97818        2.01511
C          1.50015        2.94564       -0.77259
H          1.21545        4.00092       -0.71604
H          2.50623        2.82975       -0.37661
H          1.48641        2.61805       -1.80878
C          0.64781        2.53420        1.42996
H          1.64254        2.33156        1.81879
H          0.43839        3.60514        1.51502
H         -0.08053        1.97818        2.01512
H          2.62059        0.00001       -0.56336
Ir         0.89167       -0.00000       -0.09189

A 38 39 18 S 25 5.0

