%nprocshared=48
%chk=scan_YIrMeH_reverse.chk
%mem=16GB
# wb97xd def2TZVPP SCRF=(solvent=dichloromethane) opt=modredundant

scan_YIrMeH

0 1
 C                 -1.93508670   -1.22360919   -0.09998423
 C                 -1.93645693    1.22145751   -0.10046393
 C                 -3.32110012   -1.23129402    0.09768239
 C                 -3.32245199    1.22769573    0.09720663
 C                 -3.99878386   -0.00216091    0.21121098
 H                 -3.88798712   -2.16881428    0.15945055
 H                 -3.89038461    2.16460858    0.15857647
 C                 -1.03603050   -2.40077983   -0.40731853
 H                 -1.00912251   -2.54866710   -1.50368226
 H                 -1.34707859   -3.36290546    0.05391329
 C                 -1.03857029    2.39944629   -0.40812355
 H                 -1.01123670    2.54664882   -1.50456344
 H                 -1.35086120    3.36151720    0.05240853
 N                  0.39687832   -2.10118797    0.00178350
 N                  0.39436615    2.10160549    0.00183935
 C                  2.84683199    0.00164192    0.48803985
 H                  2.60383723    0.00138542    1.57463414
 H                  3.48099468   -0.88538385    0.29502645
 H                  3.48003436    0.88937308    0.29518381
 C                  1.30527984   -2.94319690   -0.80679460
 H                  2.33594969   -2.79562824   -0.44935832
 H                  1.03118262   -4.01614346   -0.70907816
 H                  1.23550872   -2.62987287   -1.85908464
 C                  0.55503634   -2.47795427    1.43058483
 H                  0.38094506   -3.56888678    1.55640926
 H                  1.57423109   -2.22365833    1.76078457
 H                 -0.17605748   -1.91265107    2.02956255
 C                  1.30231538    2.94496947   -0.80585859
 H                  1.02681690    4.01754332   -0.70802813
 H                  2.33292032    2.79859195   -0.44775849
 H                  1.23369391    2.63190425   -1.85830683
 C                  0.55099493    2.47823241    1.43083266
 H                  1.57030484    2.22522549    1.76162408
 H                  0.37532343    3.56890620    1.55677671
 H                 -0.17974656    1.91181196    2.02918521
 H                  2.11288185    0.00159050   -0.92538417
 Ir                 0.71769280    0.00040126   -0.12253988
 H                 -5.08059148   -0.00272271    0.37779426
 C                 -1.24574733   -0.00071364   -0.17465973

A 36 37 16 S 4 -5.0

