%nprocshared=48
%chk=scan_reverse_YPtMeH_sigma.chk
%mem=16GB
# wb97xd def2TZVPP SCRF=(solvent=dichloromethane) opt=modredundant

scan_YPtMeH

1 1
C          1.92472        1.21740       -0.10490
C          1.92460       -1.21758       -0.10485
C          3.31071        1.21419       -0.03777
C          3.31059       -1.21450       -0.03772
C          3.98967       -0.00019        0.01378
H          3.86587        2.14364       -0.03758
H          3.86566       -2.14400       -0.03749
C          1.03592        2.40529       -0.33111
H          1.01844        2.62882       -1.39781
H          1.36529        3.30625        0.18883
C          1.03569       -2.40539       -0.33105
H          1.01823       -2.62896       -1.39774
H          1.36496       -3.30636        0.18893
N         -0.38121        2.09041        0.07532
N         -0.38142       -2.09037        0.07531
C         -3.34632        0.00013       -0.12780
H         -2.83042        0.00015        0.83936
H         -3.95949        0.89485       -0.18190
H         -3.95942       -0.89464       -0.18188
C         -1.31193        2.89520       -0.74098
H         -2.32841        2.73352       -0.39102
H         -1.07054        3.95654       -0.64997
H         -1.23601        2.59261       -1.78205
C         -0.55224        2.45946        1.50252
H         -0.42227        3.53752        1.62012
H         -1.54779        2.18124        1.83881
H          0.18841        1.93829        2.10322
C         -1.31218       -2.89506       -0.74105
H         -1.07092       -3.95643       -0.65002
H         -2.32867       -2.73327       -0.39115
H         -1.23617       -2.59248       -1.78211
C         -0.55258       -2.45942        1.50249
H         -1.54813       -2.18111        1.83873
H         -0.42272       -3.53750        1.62009
H          0.18809       -1.93833        2.10325
H         -2.07445        0.00014       -1.00079
H          5.06958       -0.00024        0.07375
C          1.26594       -0.00006       -0.09655
Pt        -0.64495        0.00003       -0.07408

A 16 39 36 S 1 -5.0

