%nprocshared=48
%chk=scan_forward_ZPtMeH.chk
%mem=16GB
# wb97xd def2TZVPP SCRF=(solvent=dichloromethane) opt=(modredundant)

scan_ZPtMeH

1 1
 Pt                -0.90514407    0.00000455   -0.11853233
 C                  1.70072579    1.20295907   -0.29982205
 C                  1.70071908   -1.20297015   -0.29981285
 C                  3.02406477    1.25087580    0.00751379
 C                  3.02405783   -1.25089229    0.00752430
 C                  3.79103281   -0.00000963    0.21408641
 H                  3.56250244    2.19871969    0.09202095
 H                  3.56248981   -2.19873903    0.09203575
 O                  4.97740725   -0.00001118    0.52352065
 N                  1.03537477   -0.00000458   -0.42230695
 C                  0.76069987    2.32836992   -0.65662637
 H                  0.60673002    2.32955607   -1.75135722
 H                  1.12220859    3.32440458   -0.34498654
 C                  0.76068885   -2.32837900   -0.65661117
 H                  0.60672666   -2.32957495   -1.75134311
 H                  1.12219073   -3.32441275   -0.34496011
 N                 -0.60570753    2.08397660   -0.03534367
 N                 -0.60572458   -2.08397547   -0.03534423
 C                 -2.63302172    0.00000505    1.08260290
 H                 -2.17235981    0.00013837    2.08849585
 H                 -3.26746722    0.89187106    0.96792346
 H                 -3.26735037   -0.89196715    0.96810095
 C                 -1.62195755    2.90850570   -0.74204885
 H                 -2.59507199    2.78194897   -0.24551837
 H                 -1.32315297    3.97208181   -0.69983776
 H                 -1.68953693    2.57948332   -1.78906939
 C                 -0.54237498    2.49492710    1.39958705
 H                 -0.29882321    3.57149177    1.45284565
 H                 -1.51506480    2.31695406    1.87797244
 H                  0.24546815    1.91526378    1.90710408
 C                 -1.62196768   -2.90849458   -0.74206966
 H                 -1.32316644   -3.97207196   -0.69986559
 H                 -2.59508802   -2.78194174   -0.24555002
 H                 -1.68953330   -2.57946167   -1.78908788
 C                 -0.54241848   -2.49493881    1.39958296
 H                 -1.51513234   -2.31701554    1.87793825
 H                 -0.29882173   -3.57149362    1.45283613
 H                  0.24538324   -1.91524718    1.90713206
 H                 -2.31024090    0.00002203   -0.79794817

A 39 1 19 S 17 5.0

